MODEL 1
REMARK VINA RESULT:       0.0      0.000      0.000
REMARK  Name = aspirin.pdb
REMARK  5 active torsions:
REMARK  status: ('A' for Active; 'I' for Inactive)
REMARK    1  A    between atoms: C_1  and  C_2
REMARK    2  A    between atoms: C_2  and  O_4
REMARK    3  A    between atoms: O_4  and  C_5
REMARK    4  A    between atoms: C_10  and  C_11
REMARK    5  A    between atoms: C_11  and  O_13
REMARK                            x       y       z     vdW  Elec       q    Type
REMARK                         _______ _______ _______ _____ _____    ______ ____
ROOT
ATOM      1  C   UNL     1      10.958   3.185   1.970  0.00  0.00    +0.146 A 
ATOM      2  C   UNL     1       9.714   2.873   2.543  0.00  0.00    +0.047 A 
ATOM      3  C   UNL     1       9.440   1.581   2.981  0.00  0.00    +0.004 A 
ATOM      4  C   UNL     1      10.414   0.596   2.872  0.00  0.00    +0.001 A 
ATOM      5  C   UNL     1      11.662   0.904   2.325  0.00  0.00    +0.018 A 
ATOM      6  C   UNL     1      11.956   2.205   1.873  0.00  0.00    +0.101 A 
ENDROOT
BRANCH   6   7
ATOM      7  C   UNL     1      13.330   2.412   1.343  0.00  0.00    +0.340 C 
ATOM      8  O   UNL     1      13.822   1.786   0.418  0.00  0.00    -0.245 OA
BRANCH   7   9
ATOM      9  O   UNL     1      14.044   3.358   1.971  0.00  0.00    -0.477 OA
ATOM     10  H   UNL     1      13.354   3.950   2.342  0.00  0.00    +0.295 HD
ENDBRANCH   7   9
ENDBRANCH   6   7
BRANCH   1  11
ATOM     11  O   UNL     1      11.212   4.529   1.640  0.00  0.00    -0.425 OA
BRANCH  11  13
ATOM     12  C   UNL     1      10.451   6.539   2.599  0.00  0.00    +0.136 C 
ATOM     13  C   UNL     1      11.435   5.413   2.694  0.00  0.00    +0.309 C 
ATOM     14  O   UNL     1      12.316   5.336   3.541  0.00  0.00    -0.251 OA
ENDBRANCH  11  13
ENDBRANCH   1  11
TORSDOF 4
ENDMDL
MODEL 2
REMARK VINA RESULT:       0.0     12.320     13.104
REMARK  Name = aspirin.pdb
REMARK  5 active torsions:
REMARK  status: ('A' for Active; 'I' for Inactive)
REMARK    1  A    between atoms: C_1  and  C_2
REMARK    2  A    between atoms: C_2  and  O_4
REMARK    3  A    between atoms: O_4  and  C_5
REMARK    4  A    between atoms: C_10  and  C_11
REMARK    5  A    between atoms: C_11  and  O_13
REMARK                            x       y       z     vdW  Elec       q    Type
REMARK                         _______ _______ _______ _____ _____    ______ ____
ROOT
ATOM      1  C   UNL     1      16.668  -3.560  11.421  0.00  0.00    +0.146 A 
ATOM      2  C   UNL     1      15.655  -3.031  12.237  0.00  0.00    +0.047 A 
ATOM      3  C   UNL     1      14.764  -3.875  12.895  0.00  0.00    +0.004 A 
ATOM      4  C   UNL     1      14.892  -5.251  12.761  0.00  0.00    +0.001 A 
ATOM      5  C   UNL     1      15.912  -5.785  11.970  0.00  0.00    +0.018 A 
ATOM      6  C   UNL     1      16.821  -4.947  11.293  0.00  0.00    +0.101 A 
ENDROOT
BRANCH   6   7
ATOM      7  C   UNL     1      17.880  -5.638  10.511  0.00  0.00    +0.340 C 
ATOM      8  O   UNL     1      17.674  -6.438   9.614  0.00  0.00    -0.245 OA
BRANCH   7   9
ATOM      9  O   UNL     1      19.137  -5.333  10.866  0.00  0.00    -0.477 OA
ATOM     10  H   UNL     1      19.172  -5.594  11.813  0.00  0.00    +0.295 HD
ENDBRANCH   7   9
ENDBRANCH   6   7
BRANCH   1  11
ATOM     11  O   UNL     1      17.599  -2.663  10.865  0.00  0.00    -0.425 OA
BRANCH  11  13
ATOM     12  C   UNL     1      18.441  -0.608  11.646  0.00  0.00    +0.136 C 
ATOM     13  C   UNL     1      18.537  -2.102  11.728  0.00  0.00    +0.309 C 
ATOM     14  O   UNL     1      19.356  -2.703  12.413  0.00  0.00    -0.251 OA
ENDBRANCH  11  13
ENDBRANCH   1  11
TORSDOF 4
ENDMDL
MODEL 3
REMARK VINA RESULT:       0.0     12.261     13.351
REMARK  Name = aspirin.pdb
REMARK  5 active torsions:
REMARK  status: ('A' for Active; 'I' for Inactive)
REMARK    1  A    between atoms: C_1  and  C_2
REMARK    2  A    between atoms: C_2  and  O_4
REMARK    3  A    between atoms: O_4  and  C_5
REMARK    4  A    between atoms: C_10  and  C_11
REMARK    5  A    between atoms: C_11  and  O_13
REMARK                            x       y       z     vdW  Elec       q    Type
REMARK                         _______ _______ _______ _____ _____    ______ ____
ROOT
ATOM      1  C   UNL     1      16.172  -5.624  10.601  0.00  0.00    +0.146 A 
ATOM      2  C   UNL     1      15.087  -5.782  11.477  0.00  0.00    +0.047 A 
ATOM      3  C   UNL     1      14.798  -7.027  12.030  0.00  0.00    +0.004 A 
ATOM      4  C   UNL     1      15.604  -8.117  11.729  0.00  0.00    +0.001 A 
ATOM      5  C   UNL     1      16.700  -7.963  10.877  0.00  0.00    +0.018 A 
ATOM      6  C   UNL     1      17.006  -6.712  10.305  0.00  0.00    +0.101 A 
ENDROOT
BRANCH   6   7
ATOM      7  C   UNL     1      18.216  -6.672   9.442  0.00  0.00    +0.340 C 
ATOM      8  O   UNL     1      18.392  -7.367   8.455  0.00  0.00    -0.245 OA
BRANCH   7   9
ATOM      9  O   UNL     1      19.160  -5.801   9.829  0.00  0.00    -0.477 OA
ATOM     10  H   UNL     1      19.070  -5.792  10.807  0.00  0.00    +0.295 HD
ENDBRANCH   7   9
ENDBRANCH   6   7
BRANCH   1  11
ATOM     11  O   UNL     1      16.475  -4.324  10.156  0.00  0.00    -0.425 OA
BRANCH  11  13
ATOM     12  C   UNL     1      16.195  -2.222  11.178  0.00  0.00    +0.136 C 
ATOM     13  C   UNL     1      17.047  -3.451  11.078  0.00  0.00    +0.309 C 
ATOM     14  O   UNL     1      18.100  -3.611  11.684  0.00  0.00    -0.251 OA
ENDBRANCH  11  13
ENDBRANCH   1  11
TORSDOF 4
ENDMDL
MODEL 4
REMARK VINA RESULT:       0.0      5.492      6.462
REMARK  Name = aspirin.pdb
REMARK  5 active torsions:
REMARK  status: ('A' for Active; 'I' for Inactive)
REMARK    1  A    between atoms: C_1  and  C_2
REMARK    2  A    between atoms: C_2  and  O_4
REMARK    3  A    between atoms: O_4  and  C_5
REMARK    4  A    between atoms: C_10  and  C_11
REMARK    5  A    between atoms: C_11  and  O_13
REMARK                            x       y       z     vdW  Elec       q    Type
REMARK                         _______ _______ _______ _____ _____    ______ ____
ROOT
ATOM      1  C   UNL     1      12.279  -0.047   7.248  0.00  0.00    +0.146 A 
ATOM      2  C   UNL     1      13.657  -0.177   7.009  0.00  0.00    +0.047 A 
ATOM      3  C   UNL     1      14.123  -0.597   5.766  0.00  0.00    +0.004 A 
ATOM      4  C   UNL     1      13.218  -0.868   4.747  0.00  0.00    +0.001 A 
ATOM      5  C   UNL     1      11.847  -0.719   4.971  0.00  0.00    +0.018 A 
ATOM      6  C   UNL     1      11.356  -0.298   6.223  0.00  0.00    +0.101 A 
ENDROOT
BRANCH   6   7
ATOM      7  C   UNL     1       9.881  -0.146   6.323  0.00  0.00    +0.340 C 
ATOM      8  O   UNL     1       9.072  -1.032   6.103  0.00  0.00    -0.245 OA
BRANCH   7   9
ATOM      9  O   UNL     1       9.459   1.080   6.670  0.00  0.00    -0.477 OA
ATOM     10  H   UNL     1       8.655   1.204   6.121  0.00  0.00    +0.295 HD
ENDBRANCH   7   9
ENDBRANCH   6   7
BRANCH   1  11
ATOM     11  O   UNL     1      11.874   0.479   8.489  0.00  0.00    -0.425 OA
BRANCH  11  13
ATOM     12  C   UNL     1      12.902   2.023   9.937  0.00  0.00    +0.136 C 
ATOM     13  C   UNL     1      12.076   1.841   8.701  0.00  0.00    +0.309 C 
ATOM     14  O   UNL     1      11.620   2.762   8.034  0.00  0.00    -0.251 OA
ENDBRANCH  11  13
ENDBRANCH   1  11
TORSDOF 4
ENDMDL
MODEL 5
REMARK VINA RESULT:       0.0     18.292     19.328
REMARK  Name = aspirin.pdb
REMARK  5 active torsions:
REMARK  status: ('A' for Active; 'I' for Inactive)
REMARK    1  A    between atoms: C_1  and  C_2
REMARK    2  A    between atoms: C_2  and  O_4
REMARK    3  A    between atoms: O_4  and  C_5
REMARK    4  A    between atoms: C_10  and  C_11
REMARK    5  A    between atoms: C_11  and  O_13
REMARK                            x       y       z     vdW  Elec       q    Type
REMARK                         _______ _______ _______ _____ _____    ______ ____
ROOT
ATOM      1  C   UNL     1      22.857  -3.651  16.819  0.00  0.00    +0.146 A 
ATOM      2  C   UNL     1      23.131  -5.016  16.999  0.00  0.00    +0.047 A 
ATOM      3  C   UNL     1      22.252  -5.984  16.520  0.00  0.00    +0.004 A 
ATOM      4  C   UNL     1      21.106  -5.595  15.837  0.00  0.00    +0.001 A 
ATOM      5  C   UNL     1      20.839  -4.239  15.633  0.00  0.00    +0.018 A 
ATOM      6  C   UNL     1      21.714  -3.246  16.115  0.00  0.00    +0.101 A 
ENDROOT
BRANCH   6   7
ATOM      7  C   UNL     1      21.335  -1.842  15.804  0.00  0.00    +0.340 C 
ATOM      8  O   UNL     1      20.280  -1.319  16.121  0.00  0.00    -0.245 OA
BRANCH   7   9
ATOM      9  O   UNL     1      22.250  -1.148  15.111  0.00  0.00    -0.477 OA
ATOM     10  H   UNL     1      22.142  -1.486  14.195  0.00  0.00    +0.295 HD
ENDBRANCH   7   9
ENDBRANCH   6   7
BRANCH   1  11
ATOM     11  O   UNL     1      23.831  -2.725  17.235  0.00  0.00    -0.425 OA
BRANCH  11  13
ATOM     12  C   UNL     1      26.177  -2.876  17.349  0.00  0.00    +0.136 C 
ATOM     13  C   UNL     1      24.990  -2.630  16.468  0.00  0.00    +0.309 C 
ATOM     14  O   UNL     1      25.061  -2.343  15.279  0.00  0.00    -0.251 OA
ENDBRANCH  11  13
ENDBRANCH   1  11
TORSDOF 4
ENDMDL
MODEL 6
REMARK VINA RESULT:       0.0     12.728     14.711
REMARK  Name = aspirin.pdb
REMARK  5 active torsions:
REMARK  status: ('A' for Active; 'I' for Inactive)
REMARK    1  A    between atoms: C_1  and  C_2
REMARK    2  A    between atoms: C_2  and  O_4
REMARK    3  A    between atoms: O_4  and  C_5
REMARK    4  A    between atoms: C_10  and  C_11
REMARK    5  A    between atoms: C_11  and  O_13
REMARK                            x       y       z     vdW  Elec       q    Type
REMARK                         _______ _______ _______ _____ _____    ______ ____
ROOT
ATOM      1  C   UNL     1      25.757   0.193   2.855  0.00  0.00    +0.146 A 
ATOM      2  C   UNL     1      27.012   0.290   3.478  0.00  0.00    +0.047 A 
ATOM      3  C   UNL     1      27.413  -0.660   4.413  0.00  0.00    +0.004 A 
ATOM      4  C   UNL     1      26.575  -1.726   4.715  0.00  0.00    +0.001 A 
ATOM      5  C   UNL     1      25.335  -1.842   4.082  0.00  0.00    +0.018 A 
ATOM      6  C   UNL     1      24.910  -0.889   3.136  0.00  0.00    +0.101 A 
ENDROOT
BRANCH   6   7
ATOM      7  C   UNL     1      23.586  -1.143   2.509  0.00  0.00    +0.340 C 
ATOM      8  O   UNL     1      22.538  -1.267   3.121  0.00  0.00    -0.245 OA
BRANCH   7   9
ATOM      9  O   UNL     1      23.602  -1.248   1.172  0.00  0.00    -0.477 OA
ATOM     10  H   UNL     1      23.144  -0.431   0.877  0.00  0.00    +0.295 HD
ENDBRANCH   7   9
ENDBRANCH   6   7
BRANCH   1  11
ATOM     11  O   UNL     1      25.450   1.124   1.846  0.00  0.00    -0.425 OA
BRANCH  11  13
ATOM     12  C   UNL     1      26.820   2.261   0.306  0.00  0.00    +0.136 C 
ATOM     13  C   UNL     1      26.107   0.982   0.626  0.00  0.00    +0.309 C 
ATOM     14  O   UNL     1      26.081   0.004  -0.112  0.00  0.00    -0.251 OA
ENDBRANCH  11  13
ENDBRANCH   1  11
TORSDOF 4
ENDMDL
MODEL 7
REMARK VINA RESULT:       0.0     16.431     17.375
REMARK  Name = aspirin.pdb
REMARK  5 active torsions:
REMARK  status: ('A' for Active; 'I' for Inactive)
REMARK    1  A    between atoms: C_1  and  C_2
REMARK    2  A    between atoms: C_2  and  O_4
REMARK    3  A    between atoms: O_4  and  C_5
REMARK    4  A    between atoms: C_10  and  C_11
REMARK    5  A    between atoms: C_11  and  O_13
REMARK                            x       y       z     vdW  Elec       q    Type
REMARK                         _______ _______ _______ _____ _____    ______ ____
ROOT
ATOM      1  C   UNL     1      19.806  -1.866  15.362  0.00  0.00    +0.146 A 
ATOM      2  C   UNL     1      19.441  -0.686  14.692  0.00  0.00    +0.047 A 
ATOM      3  C   UNL     1      19.087   0.453  15.409  0.00  0.00    +0.004 A 
ATOM      4  C   UNL     1      19.116   0.431  16.797  0.00  0.00    +0.001 A 
ATOM      5  C   UNL     1      19.500  -0.732  17.470  0.00  0.00    +0.018 A 
ATOM      6  C   UNL     1      19.858  -1.897  16.762  0.00  0.00    +0.101 A 
ENDROOT
BRANCH   6   7
ATOM      7  C   UNL     1      20.279  -3.056  17.593  0.00  0.00    +0.340 C 
ATOM      8  O   UNL     1      19.598  -3.577  18.459  0.00  0.00    -0.245 OA
BRANCH   7   9
ATOM      9  O   UNL     1      21.514  -3.516  17.339  0.00  0.00    -0.477 OA
ATOM     10  H   UNL     1      21.873  -2.857  16.706  0.00  0.00    +0.295 HD
ENDBRANCH   7   9
ENDBRANCH   6   7
BRANCH   1  11
ATOM     11  O   UNL     1      20.251  -2.952  14.585  0.00  0.00    -0.425 OA
BRANCH  11  13
ATOM     12  C   UNL     1      21.388  -3.033  12.526  0.00  0.00    +0.136 C 
ATOM     13  C   UNL     1      21.514  -2.847  14.008  0.00  0.00    +0.309 C 
ATOM     14  O   UNL     1      22.577  -2.684  14.594  0.00  0.00    -0.251 OA
ENDBRANCH  11  13
ENDBRANCH   1  11
TORSDOF 4
ENDMDL
MODEL 8
REMARK VINA RESULT:       0.0     14.500     16.212
REMARK  Name = aspirin.pdb
REMARK  5 active torsions:
REMARK  status: ('A' for Active; 'I' for Inactive)
REMARK    1  A    between atoms: C_1  and  C_2
REMARK    2  A    between atoms: C_2  and  O_4
REMARK    3  A    between atoms: O_4  and  C_5
REMARK    4  A    between atoms: C_10  and  C_11
REMARK    5  A    between atoms: C_11  and  O_13
REMARK                            x       y       z     vdW  Elec       q    Type
REMARK                         _______ _______ _______ _____ _____    ______ ____
ROOT
ATOM      1  C   UNL     1      25.680   7.785   5.494  0.00  0.00    +0.146 A 
ATOM      2  C   UNL     1      25.968   6.857   4.479  0.00  0.00    +0.047 A 
ATOM      3  C   UNL     1      27.032   7.069   3.606  0.00  0.00    +0.004 A 
ATOM      4  C   UNL     1      27.830   8.197   3.755  0.00  0.00    +0.001 A 
ATOM      5  C   UNL     1      27.565   9.111   4.777  0.00  0.00    +0.018 A 
ATOM      6  C   UNL     1      26.490   8.916   5.667  0.00  0.00    +0.101 A 
ENDROOT
BRANCH   6   7
ATOM      7  C   UNL     1      26.334   9.943   6.730  0.00  0.00    +0.340 C 
ATOM      8  O   UNL     1      26.184  11.137   6.530  0.00  0.00    -0.245 OA
BRANCH   7   9
ATOM      9  O   UNL     1      26.383   9.473   7.986  0.00  0.00    -0.477 OA
ATOM     10  H   UNL     1      25.674   9.977   8.442  0.00  0.00    +0.295 HD
ENDBRANCH   7   9
ENDBRANCH   6   7
BRANCH   1  11
ATOM     11  O   UNL     1      24.658   7.465   6.406  0.00  0.00    -0.425 OA
BRANCH  11  13
ATOM     12  C   UNL     1      23.889   5.396   7.222  0.00  0.00    +0.136 C 
ATOM     13  C   UNL     1      24.927   6.470   7.343  0.00  0.00    +0.309 C 
ATOM     14  O   UNL     1      25.825   6.470   8.175  0.00  0.00    -0.251 OA
ENDBRANCH  11  13
ENDBRANCH   1  11
TORSDOF 4
ENDMDL
MODEL 9
REMARK VINA RESULT:       0.0     12.183     13.996
REMARK  Name = aspirin.pdb
REMARK  5 active torsions:
REMARK  status: ('A' for Active; 'I' for Inactive)
REMARK    1  A    between atoms: C_1  and  C_2
REMARK    2  A    between atoms: C_2  and  O_4
REMARK    3  A    between atoms: O_4  and  C_5
REMARK    4  A    between atoms: C_10  and  C_11
REMARK    5  A    between atoms: C_11  and  O_13
REMARK                            x       y       z     vdW  Elec       q    Type
REMARK                         _______ _______ _______ _____ _____    ______ ____
ROOT
ATOM      1  C   UNL     1      24.275   0.065   1.391  0.00  0.00    +0.146 A 
ATOM      2  C   UNL     1      23.218   0.305   0.498  0.00  0.00    +0.047 A 
ATOM      3  C   UNL     1      22.343   1.367   0.705  0.00  0.00    +0.004 A 
ATOM      4  C   UNL     1      22.531   2.212   1.792  0.00  0.00    +0.001 A 
ATOM      5  C   UNL     1      23.594   1.994   2.671  0.00  0.00    +0.018 A 
ATOM      6  C   UNL     1      24.487   0.922   2.481  0.00  0.00    +0.101 A 
ENDROOT
BRANCH   6   7
ATOM      7  C   UNL     1      25.596   0.818   3.466  0.00  0.00    +0.340 C 
ATOM      8  O   UNL     1      25.448   0.715   4.673  0.00  0.00    -0.245 OA
BRANCH   7   9
ATOM      9  O   UNL     1      26.829   0.860   2.940  0.00  0.00    -0.477 OA
ATOM     10  H   UNL     1      27.250   1.610   3.414  0.00  0.00    +0.295 HD
ENDBRANCH   7   9
ENDBRANCH   6   7
BRANCH   1  11
ATOM     11  O   UNL     1      25.184  -0.960   1.074  0.00  0.00    -0.425 OA
BRANCH  11  13
ATOM     12  C   UNL     1      25.921  -1.805  -0.996  0.00  0.00    +0.136 C 
ATOM     13  C   UNL     1      26.074  -0.722   0.029  0.00  0.00    +0.309 C 
ATOM     14  O   UNL     1      26.895   0.184  -0.043  0.00  0.00    -0.251 OA
ENDBRANCH  11  13
ENDBRANCH   1  11
TORSDOF 4
ENDMDL
