MODEL 1
REMARK VINA RESULT:       0.0      0.000      0.000
REMARK  Name = benzene.pdb
REMARK  0 active torsions:
REMARK  status: ('A' for Active; 'I' for Inactive)
REMARK                            x       y       z     vdW  Elec       q    Type
REMARK                         _______ _______ _______ _____ _____    ______ ____
ROOT
ATOM      1  C   UNL     1      25.167  -4.575  -1.015  0.00  0.00    +0.000 A 
ATOM      2  C   UNL     1      25.252  -5.725  -0.230  0.00  0.00    +0.000 A 
ATOM      3  C   UNL     1      26.496  -6.180   0.207  0.00  0.00    +0.000 A 
ATOM      4  C   UNL     1      27.655  -5.489  -0.144  0.00  0.00    +0.000 A 
ATOM      5  C   UNL     1      27.569  -4.339  -0.930  0.00  0.00    +0.000 A 
ATOM      6  C   UNL     1      26.325  -3.882  -1.365  0.00  0.00    +0.000 A 
ENDROOT
TORSDOF 0
ENDMDL
MODEL 2
REMARK VINA RESULT:       0.0     12.466     13.246
REMARK  Name = benzene.pdb
REMARK  0 active torsions:
REMARK  status: ('A' for Active; 'I' for Inactive)
REMARK                            x       y       z     vdW  Elec       q    Type
REMARK                         _______ _______ _______ _____ _____    ______ ____
ROOT
ATOM      1  C   UNL     1      23.925  -4.287  12.128  0.00  0.00    +0.000 A 
ATOM      2  C   UNL     1      23.446  -4.588  10.854  0.00  0.00    +0.000 A 
ATOM      3  C   UNL     1      22.107  -4.356  10.539  0.00  0.00    +0.000 A 
ATOM      4  C   UNL     1      21.246  -3.826  11.500  0.00  0.00    +0.000 A 
ATOM      5  C   UNL     1      21.725  -3.526  12.775  0.00  0.00    +0.000 A 
ATOM      6  C   UNL     1      23.065  -3.755  13.089  0.00  0.00    +0.000 A 
ENDROOT
TORSDOF 0
ENDMDL
MODEL 3
REMARK VINA RESULT:       0.0     11.911     12.757
REMARK  Name = benzene.pdb
REMARK  0 active torsions:
REMARK  status: ('A' for Active; 'I' for Inactive)
REMARK                            x       y       z     vdW  Elec       q    Type
REMARK                         _______ _______ _______ _____ _____    ______ ____
ROOT
ATOM      1  C   UNL     1      23.925  -4.287  12.128  0.00  0.00    +0.000 A 
ATOM      2  C   UNL     1      24.741  -5.119  11.362  0.00  0.00    +0.000 A 
ATOM      3  C   UNL     1      24.231  -6.307  10.838  0.00  0.00    +0.000 A 
ATOM      4  C   UNL     1      22.905  -6.665  11.084  0.00  0.00    +0.000 A 
ATOM      5  C   UNL     1      22.089  -5.833  11.851  0.00  0.00    +0.000 A 
ATOM      6  C   UNL     1      22.598  -4.644  12.372  0.00  0.00    +0.000 A 
ENDROOT
TORSDOF 0
ENDMDL
MODEL 4
REMARK VINA RESULT:       0.0     14.894     15.448
REMARK  Name = benzene.pdb
REMARK  0 active torsions:
REMARK  status: ('A' for Active; 'I' for Inactive)
REMARK                            x       y       z     vdW  Elec       q    Type
REMARK                         _______ _______ _______ _____ _____    ______ ____
ROOT
ATOM      1  C   UNL     1      24.633  -3.070  14.061  0.00  0.00    +0.000 A 
ATOM      2  C   UNL     1      25.799  -3.816  14.221  0.00  0.00    +0.000 A 
ATOM      3  C   UNL     1      25.738  -5.097  14.772  0.00  0.00    +0.000 A 
ATOM      4  C   UNL     1      24.510  -5.628  15.167  0.00  0.00    +0.000 A 
ATOM      5  C   UNL     1      23.344  -4.880  15.007  0.00  0.00    +0.000 A 
ATOM      6  C   UNL     1      23.404  -3.602  14.453  0.00  0.00    +0.000 A 
ENDROOT
TORSDOF 0
ENDMDL
MODEL 5
REMARK VINA RESULT:       0.0     13.818     14.434
REMARK  Name = benzene.pdb
REMARK  0 active torsions:
REMARK  status: ('A' for Active; 'I' for Inactive)
REMARK                            x       y       z     vdW  Elec       q    Type
REMARK                         _______ _______ _______ _____ _____    ______ ____
ROOT
ATOM      1  C   UNL     1      25.173  -1.521  14.367  0.00  0.00    +0.000 A 
ATOM      2  C   UNL     1      26.110  -1.188  13.389  0.00  0.00    +0.000 A 
ATOM      3  C   UNL     1      26.481  -2.129  12.429  0.00  0.00    +0.000 A 
ATOM      4  C   UNL     1      25.919  -3.406  12.450  0.00  0.00    +0.000 A 
ATOM      5  C   UNL     1      24.983  -3.739  13.429  0.00  0.00    +0.000 A 
ATOM      6  C   UNL     1      24.609  -2.797  14.387  0.00  0.00    +0.000 A 
ENDROOT
TORSDOF 0
ENDMDL
MODEL 6
REMARK VINA RESULT:       0.0     14.579     15.133
REMARK  Name = benzene.pdb
REMARK  0 active torsions:
REMARK  status: ('A' for Active; 'I' for Inactive)
REMARK                            x       y       z     vdW  Elec       q    Type
REMARK                         _______ _______ _______ _____ _____    ______ ____
ROOT
ATOM      1  C   UNL     1      26.574  -1.502  15.024  0.00  0.00    +0.000 A 
ATOM      2  C   UNL     1      27.931  -1.183  15.068  0.00  0.00    +0.000 A 
ATOM      3  C   UNL     1      28.807  -1.729  14.130  0.00  0.00    +0.000 A 
ATOM      4  C   UNL     1      28.327  -2.597  13.149  0.00  0.00    +0.000 A 
ATOM      5  C   UNL     1      26.969  -2.916  13.105  0.00  0.00    +0.000 A 
ATOM      6  C   UNL     1      26.093  -2.368  14.042  0.00  0.00    +0.000 A 
ENDROOT
TORSDOF 0
ENDMDL
MODEL 7
REMARK VINA RESULT:       0.0     14.820     15.203
REMARK  Name = benzene.pdb
REMARK  0 active torsions:
REMARK  status: ('A' for Active; 'I' for Inactive)
REMARK                            x       y       z     vdW  Elec       q    Type
REMARK                         _______ _______ _______ _____ _____    ______ ____
ROOT
ATOM      1  C   UNL     1      26.173   0.117  14.703  0.00  0.00    +0.000 A 
ATOM      2  C   UNL     1      27.108   1.058  14.274  0.00  0.00    +0.000 A 
ATOM      3  C   UNL     1      27.142   1.448  12.935  0.00  0.00    +0.000 A 
ATOM      4  C   UNL     1      26.242   0.894  12.024  0.00  0.00    +0.000 A 
ATOM      5  C   UNL     1      25.307  -0.048  12.454  0.00  0.00    +0.000 A 
ATOM      6  C   UNL     1      25.272  -0.436  13.794  0.00  0.00    +0.000 A 
ENDROOT
TORSDOF 0
ENDMDL
MODEL 8
REMARK VINA RESULT:       0.0     16.146     16.566
REMARK  Name = benzene.pdb
REMARK  0 active torsions:
REMARK  status: ('A' for Active; 'I' for Inactive)
REMARK                            x       y       z     vdW  Elec       q    Type
REMARK                         _______ _______ _______ _____ _____    ______ ____
ROOT
ATOM      1  C   UNL     1      25.387  -1.016  16.015  0.00  0.00    +0.000 A 
ATOM      2  C   UNL     1      26.417  -0.188  16.458  0.00  0.00    +0.000 A 
ATOM      3  C   UNL     1      27.060   0.666  15.561  0.00  0.00    +0.000 A 
ATOM      4  C   UNL     1      26.675   0.689  14.220  0.00  0.00    +0.000 A 
ATOM      5  C   UNL     1      25.644  -0.141  13.778  0.00  0.00    +0.000 A 
ATOM      6  C   UNL     1      24.999  -0.993  14.675  0.00  0.00    +0.000 A 
ENDROOT
TORSDOF 0
ENDMDL
MODEL 9
REMARK VINA RESULT:       0.0     16.970     17.362
REMARK  Name = benzene.pdb
REMARK  0 active torsions:
REMARK  status: ('A' for Active; 'I' for Inactive)
REMARK                            x       y       z     vdW  Elec       q    Type
REMARK                         _______ _______ _______ _____ _____    ______ ____
ROOT
ATOM      1  C   UNL     1      22.845  -0.731  16.508  0.00  0.00    +0.000 A 
ATOM      2  C   UNL     1      23.876   0.097  16.951  0.00  0.00    +0.000 A 
ATOM      3  C   UNL     1      24.519   0.951  16.055  0.00  0.00    +0.000 A 
ATOM      4  C   UNL     1      24.133   0.974  14.714  0.00  0.00    +0.000 A 
ATOM      5  C   UNL     1      23.103   0.144  14.271  0.00  0.00    +0.000 A 
ATOM      6  C   UNL     1      22.458  -0.708  15.168  0.00  0.00    +0.000 A 
ENDROOT
TORSDOF 0
ENDMDL
