REMARK  Name = aspirin.pdb
REMARK  5 active torsions:
REMARK  status: ('A' for Active; 'I' for Inactive)
REMARK    1  A    between atoms: C_1  and  C_2
REMARK    2  A    between atoms: C_2  and  O_4
REMARK    3  A    between atoms: O_4  and  C_5
REMARK    4  A    between atoms: C_10  and  C_11
REMARK    5  A    between atoms: C_11  and  O_13
REMARK                            x       y       z     vdW  Elec       q    Type
REMARK                         _______ _______ _______ _____ _____    ______ ____
ROOT
ATOM      1  C   UNL     1       0.232  -0.964  -3.638  0.00  0.00    +0.146 A 
ATOM      2  C   UNL     1      -1.128  -1.295  -3.753  0.00  0.00    +0.047 A 
ATOM      3  C   UNL     1      -1.611  -1.915  -4.902  0.00  0.00    +0.004 A 
ATOM      4  C   UNL     1      -0.736  -2.230  -5.934  0.00  0.00    +0.001 A 
ATOM      5  C   UNL     1       0.622  -1.925  -5.817  0.00  0.00    +0.018 A 
ATOM      6  C   UNL     1       1.129  -1.294  -4.664  0.00  0.00    +0.101 A 
ENDROOT
BRANCH   6   7
ATOM      7  C   UNL     1       2.596  -1.054  -4.648  0.00  0.00    +0.340 C 
ATOM      8  O   UNL     1       3.359  -1.339  -5.556  0.00  0.00    -0.245 OA
BRANCH   7   9
ATOM      9  O   UNL     1       3.067  -0.493  -3.524  0.00  0.00    -0.477 OA
ATOM     10  H   UNL     1       4.033  -0.433  -3.691  0.00  0.00    +0.295 HD
ENDBRANCH   7   9
ENDBRANCH   6   7
BRANCH   1  11
ATOM     11  O   UNL     1       0.678  -0.432  -2.414  0.00  0.00    -0.425 OA
BRANCH  11  13
ATOM     12  C   UNL     1       0.272   0.756  -0.423  0.00  0.00    +0.136 C 
ATOM     13  C   UNL     1      -0.041   0.637  -1.884  0.00  0.00    +0.309 C 
ATOM     14  O   UNL     1      -0.844   1.347  -2.477  0.00  0.00    -0.251 OA
ENDBRANCH  11  13
ENDBRANCH   1  11
TORSDOF 4
