MODEL 1
REMARK VINA RESULT:      -6.1      0.000      0.000
REMARK SMILES CC(=O)Oc1ccccc1C(=O)O
REMARK SMILES IDX 5 1 10 2 6 3 9 4 7 5 8 6 4 7 2 8 3 9 1 10 11 11 12 12 13 13
REMARK H PARENT 13 14
ROOT
ATOM      1  C   UNL     1      16.625  -0.153  15.727  1.00  0.00     0.145 A 
ATOM      2  C   UNL     1      16.938  -0.683  16.979  1.00  0.00     0.102 A 
ATOM      3  C   UNL     1      16.395  -1.005  14.647  1.00  0.00     0.048 A 
ATOM      4  C   UNL     1      17.020  -2.065  17.150  1.00  0.00     0.019 A 
ATOM      5  C   UNL     1      16.477  -2.387  14.818  1.00  0.00     0.004 A 
ATOM      6  C   UNL     1      16.791  -2.916  16.069  1.00  0.00     0.001 A 
ENDROOT
BRANCH   1   7
ATOM      7  O   UNL     1      16.537   1.194  15.540  1.00  0.00    -0.426 OA
BRANCH   7   8
ATOM      8  C   UNL     1      17.599   1.739  14.802  1.00  0.00     0.308 C 
ATOM      9  O   UNL     1      18.786   1.661  15.089  1.00  0.00    -0.252 OA
ATOM     10  C   UNL     1      17.070   2.445  13.588  1.00  0.00     0.139 C 
ENDBRANCH   7   8
ENDBRANCH   1   7
BRANCH   2  11
ATOM     11  C   UNL     1      17.180   0.189  18.121  1.00  0.00     0.339 C 
ATOM     12  O   UNL     1      16.403   0.405  19.046  1.00  0.00    -0.246 OA
BRANCH  11  13
ATOM     13  O   UNL     1      18.409   0.772  18.062  1.00  0.00    -0.478 OA
ATOM     14  H   UNL     1      18.678   0.966  17.139  1.00  0.00     0.297 HD
ENDBRANCH  11  13
ENDBRANCH   2  11
TORSDOF 4
ENDMDL
MODEL 2
REMARK VINA RESULT:      -5.9      1.957      4.273
REMARK SMILES CC(=O)Oc1ccccc1C(=O)O
REMARK SMILES IDX 5 1 10 2 6 3 9 4 7 5 8 6 4 7 2 8 3 9 1 10 11 11 12 12 13 13
REMARK H PARENT 13 14
ROOT
ATOM      1  C   UNL     1      18.209   0.836  15.618  1.00  0.00     0.145 A 
ATOM      2  C   UNL     1      18.955   0.308  14.564  1.00  0.00     0.102 A 
ATOM      3  C   UNL     1      17.227   1.793  15.365  1.00  0.00     0.048 A 
ATOM      4  C   UNL     1      18.719   0.737  13.258  1.00  0.00     0.019 A 
ATOM      5  C   UNL     1      16.990   2.223  14.059  1.00  0.00     0.004 A 
ATOM      6  C   UNL     1      17.736   1.694  13.006  1.00  0.00     0.001 A 
ENDROOT
BRANCH   1   7
ATOM      7  O   UNL     1      18.423   0.428  16.900  1.00  0.00    -0.426 OA
BRANCH   7   8
ATOM      8  C   UNL     1      17.288  -0.108  17.527  1.00  0.00     0.308 C 
ATOM      9  O   UNL     1      16.632   0.435  18.407  1.00  0.00    -0.252 OA
ATOM     10  C   UNL     1      16.983  -1.463  16.963  1.00  0.00     0.139 C 
ENDBRANCH   7   8
ENDBRANCH   1   7
BRANCH   2  11
ATOM     11  C   UNL     1      19.984  -0.695  14.806  1.00  0.00     0.339 C 
ATOM     12  O   UNL     1      20.127  -1.750  14.196  1.00  0.00    -0.246 OA
BRANCH  11  13
ATOM     13  O   UNL     1      20.814  -0.334  15.824  1.00  0.00    -0.478 OA
ATOM     14  H   UNL     1      20.412  -0.506  16.702  1.00  0.00     0.297 HD
ENDBRANCH  11  13
ENDBRANCH   2  11
TORSDOF 4
ENDMDL
MODEL 3
REMARK VINA RESULT:      -5.9      1.852      4.485
REMARK SMILES CC(=O)Oc1ccccc1C(=O)O
REMARK SMILES IDX 5 1 10 2 6 3 9 4 7 5 8 6 4 7 2 8 3 9 1 10 11 11 12 12 13 13
REMARK H PARENT 13 14
ROOT
ATOM      1  C   UNL     1      17.944   1.111  16.064  1.00  0.00     0.145 A 
ATOM      2  C   UNL     1      18.018   1.301  14.684  1.00  0.00     0.102 A 
ATOM      3  C   UNL     1      19.111   1.066  16.825  1.00  0.00     0.048 A 
ATOM      4  C   UNL     1      19.260   1.446  14.066  1.00  0.00     0.019 A 
ATOM      5  C   UNL     1      20.353   1.211  16.208  1.00  0.00     0.004 A 
ATOM      6  C   UNL     1      20.427   1.400  14.828  1.00  0.00     0.001 A 
ENDROOT
BRANCH   1   7
ATOM      7  O   UNL     1      16.740   0.970  16.687  1.00  0.00    -0.426 OA
BRANCH   7   8
ATOM      8  C   UNL     1      16.708  -0.056  17.644  1.00  0.00     0.308 C 
ATOM      9  O   UNL     1      16.519   0.089  18.844  1.00  0.00    -0.252 OA
ATOM     10  C   UNL     1      16.942  -1.382  16.981  1.00  0.00     0.139 C 
ENDBRANCH   7   8
ENDBRANCH   1   7
BRANCH   2  11
ATOM     11  C   UNL     1      16.810   1.353  13.871  1.00  0.00     0.339 C 
ATOM     12  O   UNL     1      16.340   2.352  13.333  1.00  0.00    -0.246 OA
BRANCH  11  13
ATOM     13  O   UNL     1      16.222   0.131  13.757  1.00  0.00    -0.478 OA
ATOM     14  H   UNL     1      15.287   0.200  13.467  1.00  0.00     0.297 HD
ENDBRANCH  11  13
ENDBRANCH   2  11
TORSDOF 4
ENDMDL
