REMARK SMILES CC(=O)Oc1ccccc1C(=O)O
REMARK SMILES IDX 5 1 10 2 6 3 9 4 7 5 8 6 4 7 2 8 3 9 1 10 11 11 12 12 13 13
REMARK H PARENT 13 14
ROOT
ATOM      1  C   UNL     1      -0.086   0.609   0.440  1.00  0.00     0.145 A 
ATOM      2  C   UNL     1      -0.793  -0.551   0.124  1.00  0.00     0.102 A 
ATOM      3  C   UNL     1      -0.729   1.846   0.413  1.00  0.00     0.048 A 
ATOM      4  C   UNL     1      -2.143  -0.474  -0.218  1.00  0.00     0.019 A 
ATOM      5  C   UNL     1      -2.079   1.924   0.071  1.00  0.00     0.004 A 
ATOM      6  C   UNL     1      -2.785   0.764  -0.245  1.00  0.00     0.001 A 
ENDROOT
BRANCH   1   7
ATOM      7  O   UNL     1       1.233   0.554   0.779  1.00  0.00    -0.426 OA
BRANCH   7   8
ATOM      8  C   UNL     1       2.109   0.671  -0.311  1.00  0.00     0.308 C 
ATOM      9  O   UNL     1       1.781   0.810  -1.482  1.00  0.00    -0.252 OA
ATOM     10  C   UNL     1       3.530   0.600   0.164  1.00  0.00     0.139 C 
ENDBRANCH   7   8
ENDBRANCH   1   7
BRANCH   2  11
ATOM     11  C   UNL     1      -0.141  -1.854   0.148  1.00  0.00     0.339 C 
ATOM     12  O   UNL     1       0.796  -2.184   0.869  1.00  0.00    -0.246 OA
BRANCH  11  13
ATOM     13  O   UNL     1      -0.695  -2.715  -0.750  1.00  0.00    -0.478 OA
ATOM     14  H   UNL     1      -0.256  -3.592  -0.734  1.00  0.00     0.297 HD
ENDBRANCH  11  13
ENDBRANCH   2  11
TORSDOF 4
