MODEL 1
REMARK VINA RESULT:      -6.1      0.000      0.000
REMARK SMILES CC(=O)Oc1ccccc1C(=O)O
REMARK SMILES IDX 5 1 10 2 6 3 9 4 7 5 8 6 4 7 2 8 3 9 1 10 11 11 12 12 13 13
REMARK H PARENT 13 14
ROOT
ATOM      1  C   UNL     1      16.625  -0.152  15.727  1.00  0.00     0.145 A 
ATOM      2  C   UNL     1      16.939  -0.681  16.979  1.00  0.00     0.102 A 
ATOM      3  C   UNL     1      16.393  -1.004  14.649  1.00  0.00     0.048 A 
ATOM      4  C   UNL     1      17.021  -2.062  17.152  1.00  0.00     0.019 A 
ATOM      5  C   UNL     1      16.474  -2.386  14.821  1.00  0.00     0.004 A 
ATOM      6  C   UNL     1      16.789  -2.914  16.072  1.00  0.00     0.001 A 
ENDROOT
BRANCH   1   7
ATOM      7  O   UNL     1      16.538   1.195  15.539  1.00  0.00    -0.426 OA
BRANCH   7   8
ATOM      8  C   UNL     1      17.598   1.739  14.797  1.00  0.00     0.308 C 
ATOM      9  O   UNL     1      18.786   1.660  15.081  1.00  0.00    -0.252 OA
ATOM     10  C   UNL     1      17.066   2.443  13.584  1.00  0.00     0.139 C 
ENDBRANCH   7   8
ENDBRANCH   1   7
BRANCH   2  11
ATOM     11  C   UNL     1      17.183   0.192  18.120  1.00  0.00     0.339 C 
ATOM     12  O   UNL     1      16.408   0.410  19.046  1.00  0.00    -0.246 OA
BRANCH  11  13
ATOM     13  O   UNL     1      18.413   0.774  18.060  1.00  0.00    -0.478 OA
ATOM     14  H   UNL     1      19.097   0.150  17.736  1.00  0.00     0.297 HD
ENDBRANCH  11  13
ENDBRANCH   2  11
TORSDOF 4
ENDMDL
MODEL 2
REMARK VINA RESULT:      -5.9      1.955      4.272
REMARK SMILES CC(=O)Oc1ccccc1C(=O)O
REMARK SMILES IDX 5 1 10 2 6 3 9 4 7 5 8 6 4 7 2 8 3 9 1 10 11 11 12 12 13 13
REMARK H PARENT 13 14
ROOT
ATOM      1  C   UNL     1      18.209   0.844  15.611  1.00  0.00     0.145 A 
ATOM      2  C   UNL     1      18.954   0.310  14.559  1.00  0.00     0.102 A 
ATOM      3  C   UNL     1      17.229   1.802  15.355  1.00  0.00     0.048 A 
ATOM      4  C   UNL     1      18.716   0.733  13.251  1.00  0.00     0.019 A 
ATOM      5  C   UNL     1      16.991   2.225  14.047  1.00  0.00     0.004 A 
ATOM      6  C   UNL     1      17.735   1.691  12.996  1.00  0.00     0.001 A 
ENDROOT
BRANCH   1   7
ATOM      7  O   UNL     1      18.425   0.442  16.895  1.00  0.00    -0.426 OA
BRANCH   7   8
ATOM      8  C   UNL     1      17.292  -0.098  17.523  1.00  0.00     0.308 C 
ATOM      9  O   UNL     1      16.639   0.441  18.407  1.00  0.00    -0.252 OA
ATOM     10  C   UNL     1      16.985  -1.450  16.953  1.00  0.00     0.139 C 
ENDBRANCH   7   8
ENDBRANCH   1   7
BRANCH   2  11
ATOM     11  C   UNL     1      19.982  -0.693  14.804  1.00  0.00     0.339 C 
ATOM     12  O   UNL     1      20.127  -1.748  14.194  1.00  0.00    -0.246 OA
BRANCH  11  13
ATOM     13  O   UNL     1      20.808  -0.333  15.824  1.00  0.00    -0.478 OA
ATOM     14  H   UNL     1      21.743  -0.270  15.533  1.00  0.00     0.297 HD
ENDBRANCH  11  13
ENDBRANCH   2  11
TORSDOF 4
ENDMDL
MODEL 3
REMARK VINA RESULT:      -5.9      1.852      4.486
REMARK SMILES CC(=O)Oc1ccccc1C(=O)O
REMARK SMILES IDX 5 1 10 2 6 3 9 4 7 5 8 6 4 7 2 8 3 9 1 10 11 11 12 12 13 13
REMARK H PARENT 13 14
ROOT
ATOM      1  C   UNL     1      17.944   1.113  16.064  1.00  0.00     0.145 A 
ATOM      2  C   UNL     1      18.019   1.303  14.684  1.00  0.00     0.102 A 
ATOM      3  C   UNL     1      19.112   1.067  16.825  1.00  0.00     0.048 A 
ATOM      4  C   UNL     1      19.260   1.448  14.065  1.00  0.00     0.019 A 
ATOM      5  C   UNL     1      20.354   1.212  16.207  1.00  0.00     0.004 A 
ATOM      6  C   UNL     1      20.428   1.402  14.828  1.00  0.00     0.001 A 
ENDROOT
BRANCH   1   7
ATOM      7  O   UNL     1      16.740   0.971  16.686  1.00  0.00    -0.426 OA
BRANCH   7   8
ATOM      8  C   UNL     1      16.708  -0.056  17.642  1.00  0.00     0.308 C 
ATOM      9  O   UNL     1      16.519   0.088  18.842  1.00  0.00    -0.252 OA
ATOM     10  C   UNL     1      16.942  -1.381  16.978  1.00  0.00     0.139 C 
ENDBRANCH   7   8
ENDBRANCH   1   7
BRANCH   2  11
ATOM     11  C   UNL     1      16.811   1.356  13.870  1.00  0.00     0.339 C 
ATOM     12  O   UNL     1      16.341   2.354  13.332  1.00  0.00    -0.246 OA
BRANCH  11  13
ATOM     13  O   UNL     1      16.222   0.133  13.757  1.00  0.00    -0.478 OA
ATOM     14  H   UNL     1      15.423   0.059  14.321  1.00  0.00     0.297 HD
ENDBRANCH  11  13
ENDBRANCH   2  11
TORSDOF 4
ENDMDL
