benzene
  PyMOL2.5          3D                             0

 12 12  0  0  0  0  0  0  0  0999 V2000
    1.3830   -0.2210    0.0050 C   0  0  0  0  0  0  0  0  0  0  0  0
    0.5070   -1.3070   -0.0080 C   0  0  0  0  0  0  0  0  0  0  0  0
   -0.8710   -1.0900   -0.0150 C   0  0  0  0  0  0  0  0  0  0  0  0
   -1.3730    0.2110   -0.0040 C   0  0  0  0  0  0  0  0  0  0  0  0
   -0.4970    1.2960    0.0110 C   0  0  0  0  0  0  0  0  0  0  0  0
    0.8810    1.0800    0.0140 C   0  0  0  0  0  0  0  0  0  0  0  0
    2.4560   -0.3900    0.0090 H   0  0  0  0  0  0  0  0  0  0  0  0
    0.8980   -2.3210   -0.0130 H   0  0  0  0  0  0  0  0  0  0  0  0
   -1.5540   -1.9360   -0.0280 H   0  0  0  0  0  0  0  0  0  0  0  0
   -2.4470    0.3790   -0.0080 H   0  0  0  0  0  0  0  0  0  0  0  0
   -0.8880    2.3100    0.0200 H   0  0  0  0  0  0  0  0  0  0  0  0
    1.5640    1.9260    0.0230 H   0  0  0  0  0  0  0  0  0  0  0  0
  1  2  4  0  0  0  0
  1  6  4  0  0  0  0
  1  7  1  0  0  0  0
  2  3  4  0  0  0  0
  2  8  1  0  0  0  0
  3  4  4  0  0  0  0
  3  9  1  0  0  0  0
  4  5  4  0  0  0  0
  4 10  1  0  0  0  0
  5  6  4  0  0  0  0
  5 11  1  0  0  0  0
  6 12  1  0  0  0  0
M  END
>  <pdb_header>
COMPND    UNNAMED
AUTHOR    GENERATED BY OPEN BABEL 3.1.0


$$$$
