REMARK SMILES c1ccccc1
REMARK SMILES IDX 3 1 2 2 1 3 6 4 5 5 4 6
REMARK H PARENT
ROOT
ATOM      1  C   UNL     1       1.032   0.939  -0.001  1.00  0.00     0.000 A 
ATOM      2  C   UNL     1       1.329  -0.424  -0.030  1.00  0.00     0.000 A 
ATOM      3  C   UNL     1       0.297  -1.363  -0.029  1.00  0.00     0.000 A 
ATOM      4  C   UNL     1      -1.032  -0.939   0.001  1.00  0.00     0.000 A 
ATOM      5  C   UNL     1      -1.329   0.424   0.030  1.00  0.00     0.000 A 
ATOM      6  C   UNL     1      -0.297   1.363   0.029  1.00  0.00     0.000 A 
ENDROOT
TORSDOF 0
