benzene
     RDKit          3D

 12 12  0  0  0  0  0  0  0  0999 V2000
    1.0317    0.9387   -0.0009 C   0  0  0  0  0  0  0  0  0  0  0  0
    1.3285   -0.4239   -0.0299 C   0  0  0  0  0  0  0  0  0  0  0  0
    0.2968   -1.3626   -0.0291 C   0  0  0  0  0  0  0  0  0  0  0  0
   -1.0317   -0.9387    0.0009 C   0  0  0  0  0  0  0  0  0  0  0  0
   -1.3285    0.4239    0.0299 C   0  0  0  0  0  0  0  0  0  0  0  0
   -0.2968    1.3626    0.0291 C   0  0  0  0  0  0  0  0  0  0  0  0
    1.8355    1.6701   -0.0015 H   0  0  0  0  0  0  0  0  0  0  0  0
    2.3636   -0.7541   -0.0532 H   0  0  0  0  0  0  0  0  0  0  0  0
    0.5281   -2.4242   -0.0517 H   0  0  0  0  0  0  0  0  0  0  0  0
   -1.8355   -1.6701    0.0015 H   0  0  0  0  0  0  0  0  0  0  0  0
   -2.3636    0.7541    0.0533 H   0  0  0  0  0  0  0  0  0  0  0  0
   -0.5281    2.4242    0.0517 H   0  0  0  0  0  0  0  0  0  0  0  0
  1  2  2  0
  1  6  1  0
  2  3  1  0
  3  4  2  0
  4  5  1  0
  5  6  2  0
  1  7  1  0
  2  8  1  0
  3  9  1  0
  4 10  1  0
  5 11  1  0
  6 12  1  0
M  END
>  <pdb_header>  (1) 
COMPND    UNNAMED
AUTHOR    GENERATED BY OPEN BABEL 3.1.0

>  <ScrubInfo>  (1) 
{"isomerGroup": 0, "isomerId": 0, "confId": 0, "nr_conformers:": 1, "nr_isomers:": 1}

$$$$
