MODEL 1
REMARK VINA RESULT:      -3.9      0.000      0.000
REMARK SMILES c1ccccc1
REMARK SMILES IDX 3 1 2 2 1 3 6 4 5 5 4 6
REMARK H PARENT
ROOT
ATOM      1  C   UNL     1      16.816  -2.852  15.985  1.00  0.00     0.000 A 
ATOM      2  C   UNL     1      16.288  -2.157  14.896  1.00  0.00     0.000 A 
ATOM      3  C   UNL     1      16.055  -0.785  14.990  1.00  0.00     0.000 A 
ATOM      4  C   UNL     1      16.349  -0.107  16.174  1.00  0.00     0.000 A 
ATOM      5  C   UNL     1      16.876  -0.802  17.263  1.00  0.00     0.000 A 
ATOM      6  C   UNL     1      17.110  -2.174  17.168  1.00  0.00     0.000 A 
ENDROOT
TORSDOF 0
ENDMDL
MODEL 2
REMARK VINA RESULT:      -3.9      0.034      2.408
REMARK SMILES c1ccccc1
REMARK SMILES IDX 3 1 2 2 1 3 6 4 5 5 4 6
REMARK H PARENT
ROOT
ATOM      1  C   UNL     1      16.078  -0.816  14.963  1.00  0.00     0.000 A 
ATOM      2  C   UNL     1      16.351  -0.126  16.145  1.00  0.00     0.000 A 
ATOM      3  C   UNL     1      16.856  -0.811  17.251  1.00  0.00     0.000 A 
ATOM      4  C   UNL     1      17.087  -2.185  17.175  1.00  0.00     0.000 A 
ATOM      5  C   UNL     1      16.814  -2.874  15.993  1.00  0.00     0.000 A 
ATOM      6  C   UNL     1      16.310  -2.189  14.887  1.00  0.00     0.000 A 
ENDROOT
TORSDOF 0
ENDMDL
MODEL 3
REMARK VINA RESULT:      -3.9      5.296      6.193
REMARK SMILES c1ccccc1
REMARK SMILES IDX 3 1 2 2 1 3 6 4 5 5 4 6
REMARK H PARENT
ROOT
ATOM      1  C   UNL     1      18.440   0.687  12.511  1.00  0.00     0.000 A 
ATOM      2  C   UNL     1      19.210   0.000  11.573  1.00  0.00     0.000 A 
ATOM      3  C   UNL     1      19.834   0.698  10.538  1.00  0.00     0.000 A 
ATOM      4  C   UNL     1      19.687   2.082  10.441  1.00  0.00     0.000 A 
ATOM      5  C   UNL     1      18.916   2.769  11.380  1.00  0.00     0.000 A 
ATOM      6  C   UNL     1      18.293   2.071  12.415  1.00  0.00     0.000 A 
ENDROOT
TORSDOF 0
ENDMDL
MODEL 4
REMARK VINA RESULT:      -3.9      5.270      6.188
REMARK SMILES c1ccccc1
REMARK SMILES IDX 3 1 2 2 1 3 6 4 5 5 4 6
REMARK H PARENT
ROOT
ATOM      1  C   UNL     1      19.204  -0.003  11.603  1.00  0.00     0.000 A 
ATOM      2  C   UNL     1      18.416   0.681  12.529  1.00  0.00     0.000 A 
ATOM      3  C   UNL     1      18.261   2.064  12.427  1.00  0.00     0.000 A 
ATOM      4  C   UNL     1      18.895   2.763  11.399  1.00  0.00     0.000 A 
ATOM      5  C   UNL     1      19.683   2.079  10.473  1.00  0.00     0.000 A 
ATOM      6  C   UNL     1      19.838   0.696  10.575  1.00  0.00     0.000 A 
ENDROOT
TORSDOF 0
ENDMDL
MODEL 5
REMARK VINA RESULT:      -3.8      4.337      5.238
REMARK SMILES c1ccccc1
REMARK SMILES IDX 3 1 2 2 1 3 6 4 5 5 4 6
REMARK H PARENT
ROOT
ATOM      1  C   UNL     1      18.453   1.433  14.365  1.00  0.00     0.000 A 
ATOM      2  C   UNL     1      17.345   2.159  13.926  1.00  0.00     0.000 A 
ATOM      3  C   UNL     1      17.341   2.720  12.648  1.00  0.00     0.000 A 
ATOM      4  C   UNL     1      18.444   2.555  11.810  1.00  0.00     0.000 A 
ATOM      5  C   UNL     1      19.552   1.830  12.249  1.00  0.00     0.000 A 
ATOM      6  C   UNL     1      19.556   1.268  13.527  1.00  0.00     0.000 A 
ENDROOT
TORSDOF 0
ENDMDL
MODEL 6
REMARK VINA RESULT:      -3.8      4.308      5.347
REMARK SMILES c1ccccc1
REMARK SMILES IDX 3 1 2 2 1 3 6 4 5 5 4 6
REMARK H PARENT
ROOT
ATOM      1  C   UNL     1      18.348   2.564  11.867  1.00  0.00     0.000 A 
ATOM      2  C   UNL     1      17.293   2.689  12.771  1.00  0.00     0.000 A 
ATOM      3  C   UNL     1      17.392   2.122  14.042  1.00  0.00     0.000 A 
ATOM      4  C   UNL     1      18.547   1.429  14.408  1.00  0.00     0.000 A 
ATOM      5  C   UNL     1      19.602   1.304  13.504  1.00  0.00     0.000 A 
ATOM      6  C   UNL     1      19.502   1.871  12.233  1.00  0.00     0.000 A 
ENDROOT
TORSDOF 0
ENDMDL
MODEL 7
REMARK VINA RESULT:      -3.7      4.206      4.960
REMARK SMILES c1ccccc1
REMARK SMILES IDX 3 1 2 2 1 3 6 4 5 5 4 6
REMARK H PARENT
ROOT
ATOM      1  C   UNL     1      19.558   1.314  13.815  1.00  0.00     0.000 A 
ATOM      2  C   UNL     1      19.571   1.766  12.495  1.00  0.00     0.000 A 
ATOM      3  C   UNL     1      18.454   2.418  11.970  1.00  0.00     0.000 A 
ATOM      4  C   UNL     1      17.326   2.619  12.766  1.00  0.00     0.000 A 
ATOM      5  C   UNL     1      17.314   2.167  14.086  1.00  0.00     0.000 A 
ATOM      6  C   UNL     1      18.430   1.515  14.611  1.00  0.00     0.000 A 
ENDROOT
TORSDOF 0
ENDMDL
MODEL 8
REMARK VINA RESULT:      -3.7      3.985      5.083
REMARK SMILES c1ccccc1
REMARK SMILES IDX 3 1 2 2 1 3 6 4 5 5 4 6
REMARK H PARENT
ROOT
ATOM      1  C   UNL     1      19.618   1.609  12.806  1.00  0.00     0.000 A 
ATOM      2  C   UNL     1      19.639   1.295  14.166  1.00  0.00     0.000 A 
ATOM      3  C   UNL     1      18.508   1.520  14.951  1.00  0.00     0.000 A 
ATOM      4  C   UNL     1      17.356   2.060  14.377  1.00  0.00     0.000 A 
ATOM      5  C   UNL     1      17.335   2.375  13.018  1.00  0.00     0.000 A 
ATOM      6  C   UNL     1      18.466   2.149  12.233  1.00  0.00     0.000 A 
ENDROOT
TORSDOF 0
ENDMDL
MODEL 9
REMARK VINA RESULT:      -3.7      4.006      5.285
REMARK SMILES c1ccccc1
REMARK SMILES IDX 3 1 2 2 1 3 6 4 5 5 4 6
REMARK H PARENT
ROOT
ATOM      1  C   UNL     1      17.162   3.197  12.490  1.00  0.00     0.000 A 
ATOM      2  C   UNL     1      18.268   2.613  11.872  1.00  0.00     0.000 A 
ATOM      3  C   UNL     1      18.656   1.318  12.215  1.00  0.00     0.000 A 
ATOM      4  C   UNL     1      17.938   0.606  13.176  1.00  0.00     0.000 A 
ATOM      5  C   UNL     1      16.832   1.189  13.795  1.00  0.00     0.000 A 
ATOM      6  C   UNL     1      16.444   2.485  13.452  1.00  0.00     0.000 A 
ENDROOT
TORSDOF 0
ENDMDL
