MODEL 1
REMARK VINA RESULT:      -5.6      0.000      0.000
REMARK SMILES NC(N)=NCCC[C@H](N)C(=O)O
REMARK SMILES IDX 7 1 8 2 10 3 11 4 12 5 9 7 6 10 5 11 4 12 2 13 1 14 3 15
REMARK H PARENT 12 6 9 8 9 9 1 16 1 17 3 18 3 19
ROOT
ATOM      1  C   UNL     1      22.479  10.218   7.471  1.00  0.00     0.032 C 
ENDROOT
BRANCH   1   2
ATOM      2  C   UNL     1      22.385   9.923   8.421  1.00  0.00     0.162 C 
BRANCH   2   3
ATOM      3  C   UNL     1      22.643  10.541   9.164  1.00  0.00     0.320 C 
ATOM      4  O   UNL     1      23.127  10.186   9.964  1.00  0.00    -0.251 OA
BRANCH   3   5
ATOM      5  O   UNL     1      22.417  11.513   9.107  1.00  0.00    -0.480 OA
ATOM      6  H   UNL     1      22.624  11.852   8.631  1.00  0.00     0.296 HD
ENDBRANCH   3   5
ENDBRANCH   2   3
BRANCH   2   7
ATOM      7  N   UNL     1      22.033   9.010   8.629  1.00  0.00    -0.318 NA
ATOM      8  H   UNL     1      21.442   8.938   8.801  1.00  0.00     0.119 HD
ATOM      9  H   UNL     1      22.406   8.517   8.586  1.00  0.00     0.119 HD
ENDBRANCH   2   7
ENDBRANCH   1   2
BRANCH   1  10
ATOM     10  C   UNL     1      22.713   9.553   6.761  1.00  0.00     0.026 C 
BRANCH  10  11
ATOM     11  C   UNL     1      22.697   9.822   5.799  1.00  0.00     0.146 C 
BRANCH  11  12
ATOM     12  N   UNL     1      22.874   9.143   5.086  1.00  0.00    -0.254 NA
ATOM     13  C   UNL     1      22.735   9.379   4.125  1.00  0.00     0.185 C 
ATOM     14  N   UNL     1      22.912   8.699   3.412  1.00  0.00    -0.370 N 
ATOM     15  N   UNL     1      22.420  10.295   3.875  1.00  0.00    -0.370 N 
ATOM     16  H   UNL     1      22.826   8.846   2.816  1.00  0.00     0.159 HD
ATOM     17  H   UNL     1      23.107   8.132   3.567  1.00  0.00     0.159 HD
ATOM     18  H   UNL     1      22.334  10.441   3.279  1.00  0.00     0.159 HD
ATOM     19  H   UNL     1      22.311  10.716   4.317  1.00  0.00     0.159 HD
ENDBRANCH  11  12
ENDBRANCH  10  11
ENDBRANCH   1  10
TORSDOF 7
ENDMDL
MODEL 2
REMARK VINA RESULT:      -5.4     14.292     15.504
REMARK SMILES NC(N)=NCCC[C@H](N)C(=O)O
REMARK SMILES IDX 7 1 8 2 10 3 11 4 12 5 9 7 6 10 5 11 4 12 2 13 1 14 3 15
REMARK H PARENT 12 6 9 8 9 9 1 16 1 17 3 18 3 19
ROOT
ATOM      1  C   UNL     1      16.878  -1.078  16.842  1.00  0.00     0.032 C 
ENDROOT
BRANCH   1   2
ATOM      2  C   UNL     1      16.945  -1.278  17.820  1.00  0.00     0.162 C 
BRANCH   2   3
ATOM      3  C   UNL     1      16.665  -0.591  18.491  1.00  0.00     0.320 C 
ATOM      4  O   UNL     1      16.740   0.382  18.272  1.00  0.00    -0.251 OA
BRANCH   3   5
ATOM      5  O   UNL     1      16.309  -0.878  19.380  1.00  0.00    -0.480 OA
ATOM      6  H   UNL     1      16.682  -1.163  19.786  1.00  0.00     0.296 HD
ENDBRANCH   3   5
ENDBRANCH   2   3
BRANCH   2   7
ATOM      7  N   UNL     1      17.293  -2.164  18.126  1.00  0.00    -0.318 NA
ATOM      8  H   UNL     1      17.583  -2.211  18.672  1.00  0.00     0.119 HD
ATOM      9  H   UNL     1      17.218  -2.666  17.770  1.00  0.00     0.119 HD
ENDBRANCH   2   7
ENDBRANCH   1   2
BRANCH   1  10
ATOM     10  C   UNL     1      17.190  -1.751  16.172  1.00  0.00     0.026 C 
BRANCH  10  11
ATOM     11  C   UNL     1      17.447  -1.458  15.251  1.00  0.00     0.146 C 
BRANCH  11  12
ATOM     12  N   UNL     1      18.387  -1.583  14.931  1.00  0.00    -0.254 NA
ATOM     13  C   UNL     1      18.636  -1.321  13.999  1.00  0.00     0.185 C 
ATOM     14  N   UNL     1      19.576  -1.446  13.679  1.00  0.00    -0.370 N 
ATOM     15  N   UNL     1      17.947  -0.935  13.387  1.00  0.00    -0.370 N 
ATOM     16  H   UNL     1      19.730  -1.284  13.101  1.00  0.00     0.159 HD
ATOM     17  H   UNL     1      20.003  -1.686  14.059  1.00  0.00     0.159 HD
ATOM     18  H   UNL     1      18.102  -0.772  12.809  1.00  0.00     0.159 HD
ATOM     19  H   UNL     1      17.365  -0.857  13.585  1.00  0.00     0.159 HD
ENDBRANCH  11  12
ENDBRANCH  10  11
ENDBRANCH   1  10
TORSDOF 7
ENDMDL
MODEL 3
REMARK VINA RESULT:      -5.3     13.976     15.672
REMARK SMILES NC(N)=NCCC[C@H](N)C(=O)O
REMARK SMILES IDX 7 1 8 2 10 3 11 4 12 5 9 7 6 10 5 11 4 12 2 13 1 14 3 15
REMARK H PARENT 12 6 9 8 9 9 1 16 1 17 3 18 3 19
ROOT
ATOM      1  C   UNL     1      18.201  -1.793  14.999  1.00  0.00     0.032 C 
ENDROOT
BRANCH   1   2
ATOM      2  C   UNL     1      18.555  -1.304  14.202  1.00  0.00     0.162 C 
BRANCH   2   3
ATOM      3  C   UNL     1      19.513  -1.412  13.934  1.00  0.00     0.320 C 
ATOM      4  O   UNL     1      19.791  -1.236  12.990  1.00  0.00    -0.251 OA
BRANCH   3   5
ATOM      5  O   UNL     1      20.192  -1.695  14.611  1.00  0.00    -0.480 OA
ATOM      6  H   UNL     1      20.115  -2.225  14.925  1.00  0.00     0.296 HD
ENDBRANCH   3   5
ENDBRANCH   2   3
BRANCH   2   7
ATOM      7  N   UNL     1      17.952  -0.707  13.673  1.00  0.00    -0.318 NA
ATOM      8  H   UNL     1      17.749  -0.887  13.115  1.00  0.00     0.119 HD
ATOM      9  H   UNL     1      17.782  -0.157  13.902  1.00  0.00     0.119 HD
ENDBRANCH   2   7
ENDBRANCH   1   2
BRANCH   1  10
ATOM     10  C   UNL     1      17.391  -1.451  15.476  1.00  0.00     0.026 C 
BRANCH  10  11
ATOM     11  C   UNL     1      17.213  -1.728  16.420  1.00  0.00     0.146 C 
BRANCH  11  12
ATOM     12  N   UNL     1      16.884  -1.056  17.084  1.00  0.00    -0.254 NA
ATOM     13  C   UNL     1      16.882  -1.277  18.059  1.00  0.00     0.185 C 
ATOM     14  N   UNL     1      16.553  -0.605  18.723  1.00  0.00    -0.370 N 
ATOM     15  N   UNL     1      17.210  -2.169  18.371  1.00  0.00    -0.370 N 
ATOM     16  H   UNL     1      16.552  -0.742  19.328  1.00  0.00     0.159 HD
ATOM     17  H   UNL     1      16.350  -0.052  18.530  1.00  0.00     0.159 HD
ATOM     18  H   UNL     1      17.209  -2.306  18.976  1.00  0.00     0.159 HD
ATOM     19  H   UNL     1      17.414  -2.585  17.959  1.00  0.00     0.159 HD
ENDBRANCH  11  12
ENDBRANCH  10  11
ENDBRANCH   1  10
TORSDOF 7
ENDMDL
