REMARK SMILES NC(N)=NCCC[C@H](N)C(=O)O
REMARK SMILES IDX 7 1 8 2 10 3 11 4 12 5 9 7 6 10 5 11 4 12 2 13 1 14 3 15
REMARK H PARENT 12 6 9 8 9 9 1 16 1 17 3 18 3 19
ROOT
ATOM      1  C   UNL     1       5.135   0.810   0.000  1.00  0.00     0.032 C 
ENDROOT
BRANCH   1   2
ATOM      2  C   UNL     1       5.135   1.810   0.000  1.00  0.00     0.162 C 
BRANCH   2   3
ATOM      3  C   UNL     1       6.001   2.310   0.000  1.00  0.00     0.320 C 
ATOM      4  O   UNL     1       6.001   3.310   0.000  1.00  0.00    -0.251 OA
BRANCH   3   5
ATOM      5  O   UNL     1       6.867   1.810   0.000  1.00  0.00    -0.480 OA
ATOM      6  H   UNL     1       7.404   2.120   0.000  1.00  0.00     0.296 HD
ENDBRANCH   3   5
ENDBRANCH   2   3
BRANCH   2   7
ATOM      7  N   UNL     1       4.269   2.310   0.000  1.00  0.00    -0.318 NA
ATOM      8  H   UNL     1       3.732   2.000   0.000  1.00  0.00     0.119 HD
ATOM      9  H   UNL     1       4.269   2.930   0.000  1.00  0.00     0.119 HD
ENDBRANCH   2   7
ENDBRANCH   1   2
BRANCH   1  10
ATOM     10  C   UNL     1       4.269   0.310   0.000  1.00  0.00     0.026 C 
BRANCH  10  11
ATOM     11  C   UNL     1       4.269  -0.690   0.000  1.00  0.00     0.146 C 
BRANCH  11  12
ATOM     12  N   UNL     1       3.403  -1.190   0.000  1.00  0.00    -0.254 NA
ATOM     13  C   UNL     1       3.403  -2.190   0.000  1.00  0.00     0.185 C 
ATOM     14  N   UNL     1       2.537  -2.690   0.000  1.00  0.00    -0.370 N 
ATOM     15  N   UNL     1       4.269  -2.690   0.000  1.00  0.00    -0.370 N 
ATOM     16  H   UNL     1       2.537  -3.310   0.000  1.00  0.00     0.159 HD
ATOM     17  H   UNL     1       2.000  -2.380   0.000  1.00  0.00     0.159 HD
ATOM     18  H   UNL     1       4.269  -3.310   0.000  1.00  0.00     0.159 HD
ATOM     19  H   UNL     1       4.806  -2.380   0.000  1.00  0.00     0.159 HD
ENDBRANCH  11  12
ENDBRANCH  10  11
ENDBRANCH   1  10
TORSDOF 7
