MODEL 1
REMARK VINA RESULT:      -6.1      0.000      0.000
REMARK SMILES CC(=O)Oc1ccccc1C(=O)O
REMARK SMILES IDX 5 1 10 2 6 3 9 4 7 5 8 6 4 7 2 8 3 9 1 10 11 11 12 12 13 13
REMARK H PARENT 13 14
ROOT
ATOM      1  C   UNL     1      16.613  -0.158  15.740  1.00  0.00     0.145 A 
ATOM      2  C   UNL     1      16.942  -0.677  16.992  1.00  0.00     0.102 A 
ATOM      3  C   UNL     1      16.368  -1.020  14.671  1.00  0.00     0.048 A 
ATOM      4  C   UNL     1      17.026  -2.058  17.174  1.00  0.00     0.019 A 
ATOM      5  C   UNL     1      16.452  -2.400  14.853  1.00  0.00     0.004 A 
ATOM      6  C   UNL     1      16.782  -2.918  16.104  1.00  0.00     0.001 A 
ENDROOT
BRANCH   1   7
ATOM      7  O   UNL     1      16.523   1.187  15.542  1.00  0.00    -0.426 OA
BRANCH   7   8
ATOM      8  C   UNL     1      17.578   1.726  14.789  1.00  0.00     0.308 C 
ATOM      9  O   UNL     1      18.768   1.644  15.063  1.00  0.00    -0.252 OA
ATOM     10  C   UNL     1      17.037   2.430  13.580  1.00  0.00     0.139 C 
ENDBRANCH   7   8
ENDBRANCH   1   7
BRANCH   2  11
ATOM     11  C   UNL     1      17.200   0.205  18.122  1.00  0.00     0.339 C 
ATOM     12  O   UNL     1      16.434   0.435  19.053  1.00  0.00    -0.246 OA
BRANCH  11  13
ATOM     13  O   UNL     1      18.432   0.780  18.046  1.00  0.00    -0.478 OA
ATOM     14  H   UNL     1      19.111   0.253  18.518  1.00  0.00     0.297 HD
ENDBRANCH  11  13
ENDBRANCH   2  11
TORSDOF 4
ENDMDL
MODEL 2
REMARK VINA RESULT:      -5.9      1.956      4.278
REMARK SMILES CC(=O)Oc1ccccc1C(=O)O
REMARK SMILES IDX 5 1 10 2 6 3 9 4 7 5 8 6 4 7 2 8 3 9 1 10 11 11 12 12 13 13
REMARK H PARENT 13 14
ROOT
ATOM      1  C   UNL     1      18.206   0.834  15.619  1.00  0.00     0.145 A 
ATOM      2  C   UNL     1      18.952   0.307  14.565  1.00  0.00     0.102 A 
ATOM      3  C   UNL     1      17.224   1.791  15.368  1.00  0.00     0.048 A 
ATOM      4  C   UNL     1      18.715   0.737  13.259  1.00  0.00     0.019 A 
ATOM      5  C   UNL     1      16.986   2.221  14.062  1.00  0.00     0.004 A 
ATOM      6  C   UNL     1      17.732   1.694  13.009  1.00  0.00     0.001 A 
ENDROOT
BRANCH   1   7
ATOM      7  O   UNL     1      18.422   0.425  16.902  1.00  0.00    -0.426 OA
BRANCH   7   8
ATOM      8  C   UNL     1      17.286  -0.110  17.530  1.00  0.00     0.308 C 
ATOM      9  O   UNL     1      16.629   0.436  18.406  1.00  0.00    -0.252 OA
ATOM     10  C   UNL     1      16.983  -1.467  16.969  1.00  0.00     0.139 C 
ENDBRANCH   7   8
ENDBRANCH   1   7
BRANCH   2  11
ATOM     11  C   UNL     1      19.982  -0.696  14.806  1.00  0.00     0.339 C 
ATOM     12  O   UNL     1      20.124  -1.751  14.195  1.00  0.00    -0.246 OA
BRANCH  11  13
ATOM     13  O   UNL     1      20.813  -0.335  15.822  1.00  0.00    -0.478 OA
ATOM     14  H   UNL     1      20.324  -0.188  16.659  1.00  0.00     0.297 HD
ENDBRANCH  11  13
ENDBRANCH   2  11
TORSDOF 4
ENDMDL
MODEL 3
REMARK VINA RESULT:      -5.9      1.856      4.489
REMARK SMILES CC(=O)Oc1ccccc1C(=O)O
REMARK SMILES IDX 5 1 10 2 6 3 9 4 7 5 8 6 4 7 2 8 3 9 1 10 11 11 12 12 13 13
REMARK H PARENT 13 14
ROOT
ATOM      1  C   UNL     1      17.943   1.111  16.065  1.00  0.00     0.145 A 
ATOM      2  C   UNL     1      18.018   1.300  14.685  1.00  0.00     0.102 A 
ATOM      3  C   UNL     1      19.111   1.065  16.826  1.00  0.00     0.048 A 
ATOM      4  C   UNL     1      19.259   1.446  14.067  1.00  0.00     0.019 A 
ATOM      5  C   UNL     1      20.353   1.211  16.208  1.00  0.00     0.004 A 
ATOM      6  C   UNL     1      20.427   1.400  14.829  1.00  0.00     0.001 A 
ENDROOT
BRANCH   1   7
ATOM      7  O   UNL     1      16.739   0.969  16.688  1.00  0.00    -0.426 OA
BRANCH   7   8
ATOM      8  C   UNL     1      16.708  -0.057  17.645  1.00  0.00     0.308 C 
ATOM      9  O   UNL     1      16.519   0.089  18.845  1.00  0.00    -0.252 OA
ATOM     10  C   UNL     1      16.942  -1.382  16.983  1.00  0.00     0.139 C 
ENDBRANCH   7   8
ENDBRANCH   1   7
BRANCH   2  11
ATOM     11  C   UNL     1      16.810   1.353  13.871  1.00  0.00     0.339 C 
ATOM     12  O   UNL     1      16.339   2.351  13.334  1.00  0.00    -0.246 OA
BRANCH  11  13
ATOM     13  O   UNL     1      16.222   0.130  13.757  1.00  0.00    -0.478 OA
ATOM     14  H   UNL     1      16.818  -0.524  13.334  1.00  0.00     0.297 HD
ENDBRANCH  11  13
ENDBRANCH   2  11
TORSDOF 4
ENDMDL
MODEL 4
REMARK VINA RESULT:      -5.7      2.550      3.791
REMARK SMILES CC(=O)Oc1ccccc1C(=O)O
REMARK SMILES IDX 5 1 10 2 6 3 9 4 7 5 8 6 4 7 2 8 3 9 1 10 11 11 12 12 13 13
REMARK H PARENT 13 14
ROOT
ATOM      1  C   UNL     1      18.879   0.720  14.442  1.00  0.00     0.145 A 
ATOM      2  C   UNL     1      17.865   0.161  15.219  1.00  0.00     0.102 A 
ATOM      3  C   UNL     1      19.948   1.372  15.056  1.00  0.00     0.048 A 
ATOM      4  C   UNL     1      17.920   0.253  16.609  1.00  0.00     0.019 A 
ATOM      5  C   UNL     1      20.004   1.465  16.446  1.00  0.00     0.004 A 
ATOM      6  C   UNL     1      18.989   0.906  17.222  1.00  0.00     0.001 A 
ENDROOT
BRANCH   1   7
ATOM      7  O   UNL     1      18.845   0.638  13.082  1.00  0.00    -0.426 OA
BRANCH   7   8
ATOM      8  C   UNL     1      18.612   1.864  12.441  1.00  0.00     0.308 C 
ATOM      9  O   UNL     1      17.643   2.592  12.615  1.00  0.00    -0.252 OA
ATOM     10  C   UNL     1      19.735   2.168  11.493  1.00  0.00     0.139 C 
ENDBRANCH   7   8
ENDBRANCH   1   7
BRANCH   2  11
ATOM     11  C   UNL     1      16.741  -0.527  14.598  1.00  0.00     0.339 C 
ATOM     12  O   UNL     1      16.426  -1.702  14.765  1.00  0.00    -0.246 OA
BRANCH  11  13
ATOM     13  O   UNL     1      16.036   0.295  13.772  1.00  0.00    -0.478 OA
ATOM     14  H   UNL     1      16.318   1.230  13.860  1.00  0.00     0.297 HD
ENDBRANCH  11  13
ENDBRANCH   2  11
TORSDOF 4
ENDMDL
MODEL 5
REMARK VINA RESULT:      -5.7      2.350      4.410
REMARK SMILES CC(=O)Oc1ccccc1C(=O)O
REMARK SMILES IDX 5 1 10 2 6 3 9 4 7 5 8 6 4 7 2 8 3 9 1 10 11 11 12 12 13 13
REMARK H PARENT 13 14
ROOT
ATOM      1  C   UNL     1      18.360   1.052  14.204  1.00  0.00     0.145 A 
ATOM      2  C   UNL     1      19.736   1.243  14.334  1.00  0.00     0.102 A 
ATOM      3  C   UNL     1      17.713   1.421  13.025  1.00  0.00     0.048 A 
ATOM      4  C   UNL     1      20.464   1.803  13.284  1.00  0.00     0.019 A 
ATOM      5  C   UNL     1      18.441   1.981  11.975  1.00  0.00     0.004 A 
ATOM      6  C   UNL     1      19.816   2.172  12.106  1.00  0.00     0.001 A 
ENDROOT
BRANCH   1   7
ATOM      7  O   UNL     1      17.631   0.504  15.217  1.00  0.00    -0.426 OA
BRANCH   7   8
ATOM      8  C   UNL     1      17.183  -0.800  14.959  1.00  0.00     0.308 C 
ATOM      9  O   UNL     1      17.893  -1.787  14.815  1.00  0.00    -0.252 OA
ATOM     10  C   UNL     1      15.685  -0.820  14.880  1.00  0.00     0.139 C 
ENDBRANCH   7   8
ENDBRANCH   1   7
BRANCH   2  11
ATOM     11  C   UNL     1      20.432   0.862  15.556  1.00  0.00     0.339 C 
ATOM     12  O   UNL     1      20.906   1.628  16.390  1.00  0.00    -0.246 OA
BRANCH  11  13
ATOM     13  O   UNL     1      20.512  -0.490  15.694  1.00  0.00    -0.478 OA
ATOM     14  H   UNL     1      21.157  -0.750  16.385  1.00  0.00     0.297 HD
ENDBRANCH  11  13
ENDBRANCH   2  11
TORSDOF 4
ENDMDL
MODEL 6
REMARK VINA RESULT:      -5.6      2.096      2.934
REMARK SMILES CC(=O)Oc1ccccc1C(=O)O
REMARK SMILES IDX 5 1 10 2 6 3 9 4 7 5 8 6 4 7 2 8 3 9 1 10 11 11 12 12 13 13
REMARK H PARENT 13 14
ROOT
ATOM      1  C   UNL     1      17.638  -1.010  15.129  1.00  0.00     0.145 A 
ATOM      2  C   UNL     1      17.691  -0.014  16.103  1.00  0.00     0.102 A 
ATOM      3  C   UNL     1      17.231  -2.299  15.472  1.00  0.00     0.048 A 
ATOM      4  C   UNL     1      17.337  -0.306  17.420  1.00  0.00     0.019 A 
ATOM      5  C   UNL     1      16.877  -2.593  16.789  1.00  0.00     0.004 A 
ATOM      6  C   UNL     1      16.931  -1.596  17.762  1.00  0.00     0.001 A 
ENDROOT
BRANCH   1   7
ATOM      7  O   UNL     1      17.978  -0.744  13.836  1.00  0.00    -0.426 OA
BRANCH   7   8
ATOM      8  C   UNL     1      19.263  -1.180  13.481  1.00  0.00     0.308 C 
ATOM      9  O   UNL     1      20.123  -1.579  14.255  1.00  0.00    -0.252 OA
ATOM     10  C   UNL     1      19.444  -1.086  11.995  1.00  0.00     0.139 C 
ENDBRANCH   7   8
ENDBRANCH   1   7
BRANCH   2  11
ATOM     11  C   UNL     1      18.111   1.340  15.766  1.00  0.00     0.339 C 
ATOM     12  O   UNL     1      19.118   1.911  16.175  1.00  0.00    -0.246 OA
BRANCH  11  13
ATOM     13  O   UNL     1      17.239   1.944  14.912  1.00  0.00    -0.478 OA
ATOM     14  H   UNL     1      17.487   1.801  13.974  1.00  0.00     0.297 HD
ENDBRANCH  11  13
ENDBRANCH   2  11
TORSDOF 4
ENDMDL
MODEL 7
REMARK VINA RESULT:      -5.6      2.384      4.693
REMARK SMILES CC(=O)Oc1ccccc1C(=O)O
REMARK SMILES IDX 5 1 10 2 6 3 9 4 7 5 8 6 4 7 2 8 3 9 1 10 11 11 12 12 13 13
REMARK H PARENT 13 14
ROOT
ATOM      1  C   UNL     1      18.132   0.176  15.890  1.00  0.00     0.145 A 
ATOM      2  C   UNL     1      18.858   0.205  14.699  1.00  0.00     0.102 A 
ATOM      3  C   UNL     1      18.638   0.801  17.029  1.00  0.00     0.048 A 
ATOM      4  C   UNL     1      20.088   0.861  14.648  1.00  0.00     0.019 A 
ATOM      5  C   UNL     1      19.868   1.457  16.979  1.00  0.00     0.004 A 
ATOM      6  C   UNL     1      20.593   1.485  15.788  1.00  0.00     0.001 A 
ENDROOT
BRANCH   1   7
ATOM      7  O   UNL     1      16.927  -0.457  15.960  1.00  0.00    -0.426 OA
BRANCH   7   8
ATOM      8  C   UNL     1      16.950  -1.650  16.699  1.00  0.00     0.308 C 
ATOM      9  O   UNL     1      16.991  -1.736  17.919  1.00  0.00    -0.252 OA
ATOM     10  C   UNL     1      16.917  -2.828  15.771  1.00  0.00     0.139 C 
ENDBRANCH   7   8
ENDBRANCH   1   7
BRANCH   2  11
ATOM     11  C   UNL     1      18.348  -0.440  13.496  1.00  0.00     0.339 C 
ATOM     12  O   UNL     1      18.911  -1.317  12.848  1.00  0.00    -0.246 OA
BRANCH  11  13
ATOM     13  O   UNL     1      17.127   0.046  13.139  1.00  0.00    -0.478 OA
ATOM     14  H   UNL     1      17.181   0.973  12.822  1.00  0.00     0.297 HD
ENDBRANCH  11  13
ENDBRANCH   2  11
TORSDOF 4
ENDMDL
MODEL 8
REMARK VINA RESULT:      -5.5      2.855      5.120
REMARK SMILES CC(=O)Oc1ccccc1C(=O)O
REMARK SMILES IDX 5 1 10 2 6 3 9 4 7 5 8 6 4 7 2 8 3 9 1 10 11 11 12 12 13 13
REMARK H PARENT 13 14
ROOT
ATOM      1  C   UNL     1      18.701   0.033  12.325  1.00  0.00     0.145 A 
ATOM      2  C   UNL     1      18.079   1.216  12.722  1.00  0.00     0.102 A 
ATOM      3  C   UNL     1      19.648   0.054  11.301  1.00  0.00     0.048 A 
ATOM      4  C   UNL     1      18.403   2.420  12.097  1.00  0.00     0.019 A 
ATOM      5  C   UNL     1      19.973   1.258  10.675  1.00  0.00     0.004 A 
ATOM      6  C   UNL     1      19.350   2.440  11.073  1.00  0.00     0.001 A 
ENDROOT
BRANCH   1   7
ATOM      7  O   UNL     1      18.400  -1.152  12.925  1.00  0.00    -0.426 OA
BRANCH   7   8
ATOM      8  C   UNL     1      19.035  -1.346  14.161  1.00  0.00     0.308 C 
ATOM      9  O   UNL     1      20.208  -1.098  14.410  1.00  0.00    -0.252 OA
ATOM     10  C   UNL     1      18.063  -1.910  15.155  1.00  0.00     0.139 C 
ENDBRANCH   7   8
ENDBRANCH   1   7
BRANCH   2  11
ATOM     11  C   UNL     1      17.088   1.217  13.791  1.00  0.00     0.339 C 
ATOM     12  O   UNL     1      17.150   1.854  14.839  1.00  0.00    -0.246 OA
BRANCH  11  13
ATOM     13  O   UNL     1      16.034   0.404  13.506  1.00  0.00    -0.478 OA
ATOM     14  H   UNL     1      16.281  -0.544  13.551  1.00  0.00     0.297 HD
ENDBRANCH  11  13
ENDBRANCH   2  11
TORSDOF 4
ENDMDL
MODEL 9
REMARK VINA RESULT:      -5.5      2.789      3.448
REMARK SMILES CC(=O)Oc1ccccc1C(=O)O
REMARK SMILES IDX 5 1 10 2 6 3 9 4 7 5 8 6 4 7 2 8 3 9 1 10 11 11 12 12 13 13
REMARK H PARENT 13 14
ROOT
ATOM      1  C   UNL     1      18.639  -0.653  14.650  1.00  0.00     0.145 A 
ATOM      2  C   UNL     1      19.089   0.055  15.764  1.00  0.00     0.102 A 
ATOM      3  C   UNL     1      17.292  -1.000  14.542  1.00  0.00     0.048 A 
ATOM      4  C   UNL     1      18.193   0.417  16.770  1.00  0.00     0.019 A 
ATOM      5  C   UNL     1      16.396  -0.639  15.548  1.00  0.00     0.004 A 
ATOM      6  C   UNL     1      16.847   0.069  16.661  1.00  0.00     0.001 A 
ENDROOT
BRANCH   1   7
ATOM      7  O   UNL     1      19.498  -1.013  13.656  1.00  0.00    -0.426 OA
BRANCH   7   8
ATOM      8  C   UNL     1      19.427  -0.198  12.515  1.00  0.00     0.308 C 
ATOM      9  O   UNL     1      19.474   1.025  12.505  1.00  0.00    -0.252 OA
ATOM     10  C   UNL     1      19.283  -1.047  11.287  1.00  0.00     0.139 C 
ENDBRANCH   7   8
ENDBRANCH   1   7
BRANCH   2  11
ATOM     11  C   UNL     1      20.491   0.430  15.896  1.00  0.00     0.339 C 
ATOM     12  O   UNL     1      20.934   1.572  15.971  1.00  0.00    -0.246 OA
BRANCH  11  13
ATOM     13  O   UNL     1      21.306  -0.661  15.928  1.00  0.00    -0.478 OA
ATOM     14  H   UNL     1      20.796  -1.499  15.920  1.00  0.00     0.297 HD
ENDBRANCH  11  13
ENDBRANCH   2  11
TORSDOF 4
ENDMDL
