REMARK SMILES O=C(OC[C@H]1O[C@@H](OC(=O)c2cc(O)c(O)c(OC(=O)c3cc(O)c(O)c(O)c3)c2)[C@H](OC(=O)c2cc(O)c(O)c(OC(=O)c3cc(O)c(O)c(O)c3)c2)[C@@H](OC(=O)c2cc(O)c(O)c(OC(=O)c3cc(O)c(O)c(O)c3)c2)[C@@H]1OC(=O)c1cc(O)c(O)c(OC(=O)c2cc(O)c(O)c(O)c2)c1)c1cc(O)c(O)c(OC(=O)c2cc(O)c(O)c(O)c2)c1
REMARK SMILES IDX 6 1 55 2 79 3 31 4 5 5 7 6 4 7 3 8 2 9 1 10 103 11 122 12
REMARK SMILES IDX 104 13 109 14 105 15 107 16 110 17 111 18 112 19 113 20
REMARK SMILES IDX 121 21 114 22 119 23 115 24 117 25 120 26 116 28 118 30
REMARK SMILES IDX 106 32 108 34 8 36 9 37 10 38 11 39 30 40 12 41 17 42 13 43
REMARK SMILES IDX 15 44 18 45 19 46 20 47 21 48 29 49 22 50 27 51 23 52 25 53
REMARK SMILES IDX 28 54 24 56 26 58 14 60 16 62 80 64 81 65 82 66 83 67 102 68
REMARK SMILES IDX 84 69 89 70 85 71 87 72 90 73 91 74 92 75 93 76 101 77 94 78
REMARK SMILES IDX 99 79 95 80 97 81 100 82 96 84 98 86 86 88 88 90 32 92 33 93
REMARK SMILES IDX 34 94 35 95 54 96 36 97 41 98 37 99 39 100 42 101 43 102
REMARK SMILES IDX 44 103 45 104 53 105 46 106 51 107 47 108 49 109 52 110
REMARK SMILES IDX 48 112 50 114 38 116 40 118 56 120 57 121 58 122 59 123
REMARK SMILES IDX 78 124 60 125 65 126 61 127 63 128 66 129 67 130 68 131
REMARK SMILES IDX 69 132 77 133 70 134 75 135 71 136 73 137 76 138 72 140
REMARK SMILES IDX 74 142 62 144 64 146
REMARK H PARENT 120 27 116 29 118 31 106 33 108 35 28 55 24 57 26 59 14 61
REMARK H PARENT 16 63 100 83 96 85 98 87 86 89 88 91 52 111 48 113 50 115
REMARK H PARENT 38 117 40 119 76 139 72 141 74 143 62 145 64 147
ROOT
ATOM      1  O   UNL     1      12.929   1.000   0.000  1.00  0.00    -0.329 OA
ATOM      2  C   UNL     1      12.929  -1.000   0.000  1.00  0.00     0.267 C 
ATOM      3  C   UNL     1      12.063  -0.500   0.000  1.00  0.00     0.254 C 
ATOM      4  C   UNL     1      13.795  -0.500   0.000  1.00  0.00     0.290 C 
ATOM      5  C   UNL     1      12.063   0.500   0.000  1.00  0.00     0.205 C 
ATOM      6  C   UNL     1      13.795   0.500   0.000  1.00  0.00     0.357 C 
ENDROOT
BRANCH   5   7
ATOM      7  C   UNL     1      11.197   1.000   0.000  1.00  0.00     0.269 C 
BRANCH   7   8
ATOM      8  O   UNL     1      11.197   2.000   0.000  1.00  0.00    -0.459 OA
BRANCH   8   9
ATOM      9  C   UNL     1      10.331   2.500   0.000  1.00  0.00     0.338 C 
ATOM     10  O   UNL     1       9.465   2.000   0.000  1.00  0.00    -0.246 OA
BRANCH   9  11
ATOM     11  C   UNL     1      10.331   3.500   0.000  1.00  0.00     0.067 A 
ATOM     12  C   UNL     1      11.197   4.000   0.000  1.00  0.00     0.067 A 
ATOM     13  C   UNL     1       9.465   4.000   0.000  1.00  0.00     0.066 A 
ATOM     14  C   UNL     1      11.197   5.000   0.000  1.00  0.00     0.177 A 
ATOM     15  C   UNL     1       9.465   5.000   0.000  1.00  0.00     0.162 A 
ATOM     16  C   UNL     1      10.331   5.500   0.000  1.00  0.00     0.201 A 
BRANCH  14  17
ATOM     17  O   UNL     1      12.063   5.500   0.000  1.00  0.00    -0.419 OA
BRANCH  17  18
ATOM     18  C   UNL     1      12.063   6.500   0.000  1.00  0.00     0.343 C 
ATOM     19  O   UNL     1      11.197   7.000   0.000  1.00  0.00    -0.246 OA
BRANCH  18  20
ATOM     20  C   UNL     1      12.929   7.000   0.000  1.00  0.00     0.068 A 
ATOM     21  C   UNL     1      12.929   8.000   0.000  1.00  0.00     0.066 A 
ATOM     22  C   UNL     1      13.795   6.500   0.000  1.00  0.00     0.066 A 
ATOM     23  C   UNL     1      13.795   8.500   0.000  1.00  0.00     0.162 A 
ATOM     24  C   UNL     1      14.661   7.000   0.000  1.00  0.00     0.162 A 
ATOM     25  C   UNL     1      14.661   8.000   0.000  1.00  0.00     0.200 A 
BRANCH  23  26
ATOM     26  O   UNL     1      13.795   9.500   0.000  1.00  0.00    -0.504 OA
ATOM     27  H   UNL     1      13.258   9.810   0.000  1.00  0.00     0.293 HD
ENDBRANCH  23  26
BRANCH  24  28
ATOM     28  O   UNL     1      15.527   6.500   0.000  1.00  0.00    -0.504 OA
ATOM     29  H   UNL     1      16.064   6.810   0.000  1.00  0.00     0.293 HD
ENDBRANCH  24  28
BRANCH  25  30
ATOM     30  O   UNL     1      15.527   8.500   0.000  1.00  0.00    -0.502 OA
ATOM     31  H   UNL     1      15.527   9.120   0.000  1.00  0.00     0.293 HD
ENDBRANCH  25  30
ENDBRANCH  18  20
ENDBRANCH  17  18
ENDBRANCH  14  17
BRANCH  15  32
ATOM     32  O   UNL     1       8.599   5.500   0.000  1.00  0.00    -0.504 OA
ATOM     33  H   UNL     1       8.062   5.190   0.000  1.00  0.00     0.293 HD
ENDBRANCH  15  32
BRANCH  16  34
ATOM     34  O   UNL     1      10.331   6.500   0.000  1.00  0.00    -0.502 OA
ATOM     35  H   UNL     1       9.794   6.810   0.000  1.00  0.00     0.293 HD
ENDBRANCH  16  34
ENDBRANCH   9  11
ENDBRANCH   8   9
ENDBRANCH   7   8
ENDBRANCH   5   7
BRANCH   6  36
ATOM     36  O   UNL     1      14.661   1.000   0.000  1.00  0.00    -0.428 OA
BRANCH  36  37
ATOM     37  C   UNL     1      14.661   2.000   0.000  1.00  0.00     0.340 C 
ATOM     38  O   UNL     1      13.795   2.500   0.000  1.00  0.00    -0.246 OA
BRANCH  37  39
ATOM     39  C   UNL     1      15.527   2.500   0.000  1.00  0.00     0.067 A 
ATOM     40  C   UNL     1      16.393   2.000   0.000  1.00  0.00     0.067 A 
ATOM     41  C   UNL     1      15.527   3.500   0.000  1.00  0.00     0.066 A 
ATOM     42  C   UNL     1      17.259   2.500   0.000  1.00  0.00     0.177 A 
ATOM     43  C   UNL     1      16.393   4.000   0.000  1.00  0.00     0.162 A 
ATOM     44  C   UNL     1      17.259   3.500   0.000  1.00  0.00     0.201 A 
BRANCH  42  45
ATOM     45  O   UNL     1      18.125   2.000   0.000  1.00  0.00    -0.419 OA
BRANCH  45  46
ATOM     46  C   UNL     1      18.991   2.500   0.000  1.00  0.00     0.343 C 
ATOM     47  O   UNL     1      18.991   3.500   0.000  1.00  0.00    -0.246 OA
BRANCH  46  48
ATOM     48  C   UNL     1      19.857   2.000   0.000  1.00  0.00     0.068 A 
ATOM     49  C   UNL     1      19.857   1.000   0.000  1.00  0.00     0.066 A 
ATOM     50  C   UNL     1      20.724   2.500   0.000  1.00  0.00     0.066 A 
ATOM     51  C   UNL     1      20.724   0.500   0.000  1.00  0.00     0.162 A 
ATOM     52  C   UNL     1      21.590   2.000   0.000  1.00  0.00     0.162 A 
ATOM     53  C   UNL     1      21.590   1.000   0.000  1.00  0.00     0.200 A 
BRANCH  51  54
ATOM     54  O   UNL     1      20.724  -0.500   0.000  1.00  0.00    -0.504 OA
ATOM     55  H   UNL     1      21.260  -0.810   0.000  1.00  0.00     0.293 HD
ENDBRANCH  51  54
BRANCH  52  56
ATOM     56  O   UNL     1      22.456   2.500   0.000  1.00  0.00    -0.504 OA
ATOM     57  H   UNL     1      22.456   3.120   0.000  1.00  0.00     0.293 HD
ENDBRANCH  52  56
BRANCH  53  58
ATOM     58  O   UNL     1      22.456   0.500   0.000  1.00  0.00    -0.502 OA
ATOM     59  H   UNL     1      22.992   0.810   0.000  1.00  0.00     0.293 HD
ENDBRANCH  53  58
ENDBRANCH  46  48
ENDBRANCH  45  46
ENDBRANCH  42  45
BRANCH  43  60
ATOM     60  O   UNL     1      16.393   5.000   0.000  1.00  0.00    -0.504 OA
ATOM     61  H   UNL     1      15.856   5.310   0.000  1.00  0.00     0.293 HD
ENDBRANCH  43  60
BRANCH  44  62
ATOM     62  O   UNL     1      18.125   4.000   0.000  1.00  0.00    -0.502 OA
ATOM     63  H   UNL     1      18.125   4.620   0.000  1.00  0.00     0.293 HD
ENDBRANCH  44  62
ENDBRANCH  37  39
ENDBRANCH  36  37
ENDBRANCH   6  36
BRANCH   3  64
ATOM     64  O   UNL     1      11.197  -1.000   0.000  1.00  0.00    -0.452 OA
BRANCH  64  65
ATOM     65  C   UNL     1      10.331  -0.500   0.000  1.00  0.00     0.338 C 
ATOM     66  O   UNL     1      10.331   0.500   0.000  1.00  0.00    -0.246 OA
BRANCH  65  67
ATOM     67  C   UNL     1       9.465  -1.000   0.000  1.00  0.00     0.067 A 
ATOM     68  C   UNL     1       8.599  -0.500   0.000  1.00  0.00     0.067 A 
ATOM     69  C   UNL     1       9.465  -2.000   0.000  1.00  0.00     0.066 A 
ATOM     70  C   UNL     1       7.733  -1.000   0.000  1.00  0.00     0.177 A 
ATOM     71  C   UNL     1       8.599  -2.500   0.000  1.00  0.00     0.162 A 
ATOM     72  C   UNL     1       7.733  -2.000   0.000  1.00  0.00     0.201 A 
BRANCH  70  73
ATOM     73  O   UNL     1       6.867  -0.500   0.000  1.00  0.00    -0.419 OA
BRANCH  73  74
ATOM     74  C   UNL     1       6.001  -1.000   0.000  1.00  0.00     0.343 C 
ATOM     75  O   UNL     1       6.001  -2.000   0.000  1.00  0.00    -0.246 OA
BRANCH  74  76
ATOM     76  C   UNL     1       5.135  -0.500   0.000  1.00  0.00     0.068 A 
ATOM     77  C   UNL     1       4.269  -1.000   0.000  1.00  0.00     0.066 A 
ATOM     78  C   UNL     1       5.135   0.500   0.000  1.00  0.00     0.066 A 
ATOM     79  C   UNL     1       3.403  -0.500   0.000  1.00  0.00     0.162 A 
ATOM     80  C   UNL     1       4.269   1.000   0.000  1.00  0.00     0.162 A 
ATOM     81  C   UNL     1       3.403   0.500   0.000  1.00  0.00     0.200 A 
BRANCH  79  82
ATOM     82  O   UNL     1       2.537  -1.000   0.000  1.00  0.00    -0.504 OA
ATOM     83  H   UNL     1       2.537  -1.620   0.000  1.00  0.00     0.293 HD
ENDBRANCH  79  82
BRANCH  80  84
ATOM     84  O   UNL     1       4.269   2.000   0.000  1.00  0.00    -0.504 OA
ATOM     85  H   UNL     1       3.732   2.310   0.000  1.00  0.00     0.293 HD
ENDBRANCH  80  84
BRANCH  81  86
ATOM     86  O   UNL     1       2.537   1.000   0.000  1.00  0.00    -0.502 OA
ATOM     87  H   UNL     1       2.000   0.690   0.000  1.00  0.00     0.293 HD
ENDBRANCH  81  86
ENDBRANCH  74  76
ENDBRANCH  73  74
ENDBRANCH  70  73
BRANCH  71  88
ATOM     88  O   UNL     1       8.599  -3.500   0.000  1.00  0.00    -0.504 OA
ATOM     89  H   UNL     1       8.062  -3.810   0.000  1.00  0.00     0.293 HD
ENDBRANCH  71  88
BRANCH  72  90
ATOM     90  O   UNL     1       6.867  -2.500   0.000  1.00  0.00    -0.502 OA
ATOM     91  H   UNL     1       6.867  -3.120   0.000  1.00  0.00     0.293 HD
ENDBRANCH  72  90
ENDBRANCH  65  67
ENDBRANCH  64  65
ENDBRANCH   3  64
BRANCH   4  92
ATOM     92  O   UNL     1      14.661  -1.000   0.000  1.00  0.00    -0.448 OA
BRANCH  92  93
ATOM     93  C   UNL     1      15.527  -0.500   0.000  1.00  0.00     0.339 C 
ATOM     94  O   UNL     1      15.527   0.500   0.000  1.00  0.00    -0.246 OA
BRANCH  93  95
ATOM     95  C   UNL     1      16.393  -1.000   0.000  1.00  0.00     0.067 A 
ATOM     96  C   UNL     1      16.393  -2.000   0.000  1.00  0.00     0.067 A 
ATOM     97  C   UNL     1      17.259  -0.500   0.000  1.00  0.00     0.066 A 
ATOM     98  C   UNL     1      17.259  -2.500   0.000  1.00  0.00     0.177 A 
ATOM     99  C   UNL     1      18.125  -1.000   0.000  1.00  0.00     0.162 A 
ATOM    100  C   UNL     1      18.125  -2.000   0.000  1.00  0.00     0.201 A 
BRANCH  98 101
ATOM    101  O   UNL     1      17.259  -3.500   0.000  1.00  0.00    -0.419 OA
BRANCH 101 102
ATOM    102  C   UNL     1      18.125  -4.000   0.000  1.00  0.00     0.343 C 
ATOM    103  O   UNL     1      18.991  -3.500   0.000  1.00  0.00    -0.246 OA
BRANCH 102 104
ATOM    104  C   UNL     1      18.125  -5.000   0.000  1.00  0.00     0.068 A 
ATOM    105  C   UNL     1      17.259  -5.500   0.000  1.00  0.00     0.066 A 
ATOM    106  C   UNL     1      18.991  -5.500   0.000  1.00  0.00     0.066 A 
ATOM    107  C   UNL     1      17.259  -6.500   0.000  1.00  0.00     0.162 A 
ATOM    108  C   UNL     1      18.991  -6.500   0.000  1.00  0.00     0.162 A 
ATOM    109  C   UNL     1      18.125  -7.000   0.000  1.00  0.00     0.200 A 
BRANCH 107 110
ATOM    110  O   UNL     1      16.393  -7.000   0.000  1.00  0.00    -0.504 OA
ATOM    111  H   UNL     1      16.393  -7.620   0.000  1.00  0.00     0.293 HD
ENDBRANCH 107 110
BRANCH 108 112
ATOM    112  O   UNL     1      19.857  -7.000   0.000  1.00  0.00    -0.504 OA
ATOM    113  H   UNL     1      20.394  -6.690   0.000  1.00  0.00     0.293 HD
ENDBRANCH 108 112
BRANCH 109 114
ATOM    114  O   UNL     1      18.125  -8.000   0.000  1.00  0.00    -0.502 OA
ATOM    115  H   UNL     1      18.662  -8.310   0.000  1.00  0.00     0.293 HD
ENDBRANCH 109 114
ENDBRANCH 102 104
ENDBRANCH 101 102
ENDBRANCH  98 101
BRANCH  99 116
ATOM    116  O   UNL     1      18.991  -0.500   0.000  1.00  0.00    -0.504 OA
ATOM    117  H   UNL     1      19.528  -0.810   0.000  1.00  0.00     0.293 HD
ENDBRANCH  99 116
BRANCH 100 118
ATOM    118  O   UNL     1      18.991  -2.500   0.000  1.00  0.00    -0.502 OA
ATOM    119  H   UNL     1      19.528  -2.190   0.000  1.00  0.00     0.293 HD
ENDBRANCH 100 118
ENDBRANCH  93  95
ENDBRANCH  92  93
ENDBRANCH   4  92
BRANCH   2 120
ATOM    120  O   UNL     1      12.929  -2.000   0.000  1.00  0.00    -0.450 OA
BRANCH 120 121
ATOM    121  C   UNL     1      12.063  -2.500   0.000  1.00  0.00     0.338 C 
ATOM    122  O   UNL     1      11.197  -2.000   0.000  1.00  0.00    -0.246 OA
BRANCH 121 123
ATOM    123  C   UNL     1      12.063  -3.500   0.000  1.00  0.00     0.067 A 
ATOM    124  C   UNL     1      11.197  -4.000   0.000  1.00  0.00     0.067 A 
ATOM    125  C   UNL     1      12.929  -4.000   0.000  1.00  0.00     0.066 A 
ATOM    126  C   UNL     1      11.197  -5.000   0.000  1.00  0.00     0.177 A 
ATOM    127  C   UNL     1      12.929  -5.000   0.000  1.00  0.00     0.162 A 
ATOM    128  C   UNL     1      12.063  -5.500   0.000  1.00  0.00     0.201 A 
BRANCH 126 129
ATOM    129  O   UNL     1      10.331  -5.500   0.000  1.00  0.00    -0.419 OA
BRANCH 129 130
ATOM    130  C   UNL     1      10.331  -6.500   0.000  1.00  0.00     0.343 C 
ATOM    131  O   UNL     1      11.197  -7.000   0.000  1.00  0.00    -0.246 OA
BRANCH 130 132
ATOM    132  C   UNL     1       9.465  -7.000   0.000  1.00  0.00     0.068 A 
ATOM    133  C   UNL     1       9.465  -8.000   0.000  1.00  0.00     0.066 A 
ATOM    134  C   UNL     1       8.599  -6.500   0.000  1.00  0.00     0.066 A 
ATOM    135  C   UNL     1       8.599  -8.500   0.000  1.00  0.00     0.162 A 
ATOM    136  C   UNL     1       7.733  -7.000   0.000  1.00  0.00     0.162 A 
ATOM    137  C   UNL     1       7.733  -8.000   0.000  1.00  0.00     0.200 A 
BRANCH 135 138
ATOM    138  O   UNL     1       8.599  -9.500   0.000  1.00  0.00    -0.504 OA
ATOM    139  H   UNL     1       9.136  -9.810   0.000  1.00  0.00     0.293 HD
ENDBRANCH 135 138
BRANCH 136 140
ATOM    140  O   UNL     1       6.867  -6.500   0.000  1.00  0.00    -0.504 OA
ATOM    141  H   UNL     1       6.330  -6.810   0.000  1.00  0.00     0.293 HD
ENDBRANCH 136 140
BRANCH 137 142
ATOM    142  O   UNL     1       6.867  -8.500   0.000  1.00  0.00    -0.502 OA
ATOM    143  H   UNL     1       6.867  -9.120   0.000  1.00  0.00     0.293 HD
ENDBRANCH 137 142
ENDBRANCH 130 132
ENDBRANCH 129 130
ENDBRANCH 126 129
BRANCH 127 144
ATOM    144  O   UNL     1      13.795  -5.500   0.000  1.00  0.00    -0.504 OA
ATOM    145  H   UNL     1      14.332  -5.190   0.000  1.00  0.00     0.293 HD
ENDBRANCH 127 144
BRANCH 128 146
ATOM    146  O   UNL     1      12.063  -6.500   0.000  1.00  0.00    -0.502 OA
ATOM    147  H   UNL     1      12.600  -6.810   0.000  1.00  0.00     0.293 HD
ENDBRANCH 128 146
ENDBRANCH 121 123
ENDBRANCH 120 121
ENDBRANCH   2 120
TORSDOF 56
