MODEL 1
REMARK VINA RESULT:      -4.1      0.000      0.000
REMARK SMILES CC(=O)Oc1ccccc1C(=O)O
REMARK SMILES IDX 5 1 10 2 6 3 9 4 7 5 8 6 4 7 2 8 3 9 1 10 11 11 12 12 13 13
REMARK H PARENT 13 14
ROOT
ATOM      1  C   UNL     1     -31.645   7.119 -43.738  1.00  0.00     0.145 A 
ATOM      2  C   UNL     1     -31.853   5.771 -43.448  1.00  0.00     0.102 A 
ATOM      3  C   UNL     1     -31.831   8.082 -42.746  1.00  0.00     0.048 A 
ATOM      4  C   UNL     1     -32.247   5.385 -42.167  1.00  0.00     0.019 A 
ATOM      5  C   UNL     1     -32.225   7.697 -41.464  1.00  0.00     0.004 A 
ATOM      6  C   UNL     1     -32.434   6.348 -41.176  1.00  0.00     0.001 A 
ENDROOT
BRANCH   1   7
ATOM      7  O   UNL     1     -31.257   7.516 -44.983  1.00  0.00    -0.426 OA
BRANCH   7   8
ATOM      8  C   UNL     1     -32.165   8.378 -45.617  1.00  0.00     0.308 C 
ATOM      9  O   UNL     1     -33.385   8.317 -45.537  1.00  0.00    -0.252 OA
ATOM     10  C   UNL     1     -31.423   9.402 -46.423  1.00  0.00     0.139 C 
ENDBRANCH   7   8
ENDBRANCH   1   7
BRANCH   2  11
ATOM     11  C   UNL     1     -31.661   4.749 -44.469  1.00  0.00     0.339 C 
ATOM     12  O   UNL     1     -30.598   4.218 -44.774  1.00  0.00    -0.246 OA
BRANCH  11  13
ATOM     13  O   UNL     1     -32.831   4.422 -45.085  1.00  0.00    -0.478 OA
ATOM     14  H   UNL     1     -33.599   4.871 -44.673  1.00  0.00     0.297 HD
ENDBRANCH  11  13
ENDBRANCH   2  11
TORSDOF 4
ENDMDL
MODEL 2
REMARK VINA RESULT:      -4.1     12.370     13.778
REMARK SMILES CC(=O)Oc1ccccc1C(=O)O
REMARK SMILES IDX 5 1 10 2 6 3 9 4 7 5 8 6 4 7 2 8 3 9 1 10 11 11 12 12 13 13
REMARK H PARENT 13 14
ROOT
ATOM      1  C   UNL     1     -24.916   3.670 -55.097  1.00  0.00     0.145 A 
ATOM      2  C   UNL     1     -25.871   2.659 -54.994  1.00  0.00     0.102 A 
ATOM      3  C   UNL     1     -25.091   4.868 -54.405  1.00  0.00     0.048 A 
ATOM      4  C   UNL     1     -27.000   2.845 -54.197  1.00  0.00     0.019 A 
ATOM      5  C   UNL     1     -26.221   5.055 -53.608  1.00  0.00     0.004 A 
ATOM      6  C   UNL     1     -27.175   4.043 -53.505  1.00  0.00     0.001 A 
ENDROOT
BRANCH   1   7
ATOM      7  O   UNL     1     -23.804   3.507 -55.869  1.00  0.00    -0.426 OA
BRANCH   7   8
ATOM      8  C   UNL     1     -22.611   3.404 -55.138  1.00  0.00     0.308 C 
ATOM      9  O   UNL     1     -22.378   2.587 -54.257  1.00  0.00    -0.252 OA
ATOM     10  C   UNL     1     -21.640   4.454 -55.592  1.00  0.00     0.139 C 
ENDBRANCH   7   8
ENDBRANCH   1   7
BRANCH   2  11
ATOM     11  C   UNL     1     -25.706   1.399 -55.708  1.00  0.00     0.339 C 
ATOM     12  O   UNL     1     -26.451   0.953 -56.574  1.00  0.00    -0.246 OA
BRANCH  11  13
ATOM     13  O   UNL     1     -24.592   0.729 -55.302  1.00  0.00    -0.478 OA
ATOM     14  H   UNL     1     -24.391   0.893 -54.356  1.00  0.00     0.297 HD
ENDBRANCH  11  13
ENDBRANCH   2  11
TORSDOF 4
ENDMDL
MODEL 3
REMARK VINA RESULT:      -4.0     12.837     14.377
REMARK SMILES CC(=O)Oc1ccccc1C(=O)O
REMARK SMILES IDX 5 1 10 2 6 3 9 4 7 5 8 6 4 7 2 8 3 9 1 10 11 11 12 12 13 13
REMARK H PARENT 13 14
ROOT
ATOM      1  C   UNL     1     -25.034   2.067 -55.140  1.00  0.00     0.145 A 
ATOM      2  C   UNL     1     -24.656   2.985 -54.160  1.00  0.00     0.102 A 
ATOM      3  C   UNL     1     -26.358   2.016 -55.573  1.00  0.00     0.048 A 
ATOM      4  C   UNL     1     -25.602   3.853 -53.615  1.00  0.00     0.019 A 
ATOM      5  C   UNL     1     -27.305   2.884 -55.029  1.00  0.00     0.004 A 
ATOM      6  C   UNL     1     -26.926   3.801 -54.050  1.00  0.00     0.001 A 
ENDROOT
BRANCH   1   7
ATOM      7  O   UNL     1     -24.124   1.212 -55.686  1.00  0.00    -0.426 OA
BRANCH   7   8
ATOM      8  C   UNL     1     -23.802   1.496 -57.022  1.00  0.00     0.308 C 
ATOM      9  O   UNL     1     -23.463   2.588 -57.460  1.00  0.00    -0.252 OA
ATOM     10  C   UNL     1     -23.934   0.257 -57.856  1.00  0.00     0.139 C 
ENDBRANCH   7   8
ENDBRANCH   1   7
BRANCH   2  11
ATOM     11  C   UNL     1     -23.277   3.056 -53.694  1.00  0.00     0.339 C 
ATOM     12  O   UNL     1     -22.509   4.002 -53.840  1.00  0.00    -0.246 OA
BRANCH  11  13
ATOM     13  O   UNL     1     -22.900   1.917 -53.050  1.00  0.00    -0.478 OA
ATOM     14  H   UNL     1     -21.936   1.753 -53.132  1.00  0.00     0.297 HD
ENDBRANCH  11  13
ENDBRANCH   2  11
TORSDOF 4
ENDMDL
