MODEL 1
REMARK VINA RESULT:      -6.1      0.000      0.000
REMARK SMILES CC(=O)Oc1ccccc1C(=O)O
REMARK SMILES IDX 5 1 10 2 6 3 9 4 7 5 8 6 4 7 2 8 3 9 1 10 11 11 12 12 13 13
REMARK H PARENT 13 14
ROOT
ATOM      1  C   UNL     1      16.601  -0.162  15.728  1.00  0.00     0.145 A 
ATOM      2  C   UNL     1      16.926  -0.689  16.978  1.00  0.00     0.102 A 
ATOM      3  C   UNL     1      16.369  -1.017  14.651  1.00  0.00     0.048 A 
ATOM      4  C   UNL     1      17.016  -2.070  17.151  1.00  0.00     0.019 A 
ATOM      5  C   UNL     1      16.459  -2.398  14.823  1.00  0.00     0.004 A 
ATOM      6  C   UNL     1      16.784  -2.924  16.073  1.00  0.00     0.001 A 
ENDROOT
BRANCH   1   7
ATOM      7  O   UNL     1      16.505   1.184  15.540  1.00  0.00    -0.426 OA
BRANCH   7   8
ATOM      8  C   UNL     1      17.569   1.737  14.810  1.00  0.00     0.308 C 
ATOM      9  O   UNL     1      18.755   1.663  15.104  1.00  0.00    -0.252 OA
ATOM     10  C   UNL     1      17.043   2.445  13.596  1.00  0.00     0.139 C 
ENDBRANCH   7   8
ENDBRANCH   1   7
BRANCH   2  11
ATOM     11  C   UNL     1      17.171   0.185  18.118  1.00  0.00     0.339 C 
ATOM     12  O   UNL     1      16.396   0.406  19.044  1.00  0.00    -0.246 OA
BRANCH  11  13
ATOM     13  O   UNL     1      18.401   0.766  18.056  1.00  0.00    -0.478 OA
ATOM     14  H   UNL     1      19.095   0.194  18.449  1.00  0.00     0.297 HD
ENDBRANCH  11  13
ENDBRANCH   2  11
TORSDOF 4
ENDMDL
MODEL 2
REMARK VINA RESULT:      -5.9      1.966      4.277
REMARK SMILES CC(=O)Oc1ccccc1C(=O)O
REMARK SMILES IDX 5 1 10 2 6 3 9 4 7 5 8 6 4 7 2 8 3 9 1 10 11 11 12 12 13 13
REMARK H PARENT 13 14
ROOT
ATOM      1  C   UNL     1      18.211   0.843  15.615  1.00  0.00     0.145 A 
ATOM      2  C   UNL     1      18.956   0.312  14.562  1.00  0.00     0.102 A 
ATOM      3  C   UNL     1      17.231   1.801  15.362  1.00  0.00     0.048 A 
ATOM      4  C   UNL     1      18.719   0.740  13.256  1.00  0.00     0.019 A 
ATOM      5  C   UNL     1      16.994   2.230  14.056  1.00  0.00     0.004 A 
ATOM      6  C   UNL     1      17.739   1.699  13.004  1.00  0.00     0.001 A 
ENDROOT
BRANCH   1   7
ATOM      7  O   UNL     1      18.425   0.436  16.898  1.00  0.00    -0.426 OA
BRANCH   7   8
ATOM      8  C   UNL     1      17.290  -0.101  17.525  1.00  0.00     0.308 C 
ATOM      9  O   UNL     1      16.634   0.441  18.405  1.00  0.00    -0.252 OA
ATOM     10  C   UNL     1      16.986  -1.457  16.960  1.00  0.00     0.139 C 
ENDBRANCH   7   8
ENDBRANCH   1   7
BRANCH   2  11
ATOM     11  C   UNL     1      19.984  -0.692  14.804  1.00  0.00     0.339 C 
ATOM     12  O   UNL     1      20.127  -1.746  14.193  1.00  0.00    -0.246 OA
BRANCH  11  13
ATOM     13  O   UNL     1      20.812  -0.334  15.825  1.00  0.00    -0.478 OA
ATOM     14  H   UNL     1      20.478  -0.646  16.693  1.00  0.00     0.297 HD
ENDBRANCH  11  13
ENDBRANCH   2  11
TORSDOF 4
ENDMDL
MODEL 3
REMARK VINA RESULT:      -5.9      1.860      4.486
REMARK SMILES CC(=O)Oc1ccccc1C(=O)O
REMARK SMILES IDX 5 1 10 2 6 3 9 4 7 5 8 6 4 7 2 8 3 9 1 10 11 11 12 12 13 13
REMARK H PARENT 13 14
ROOT
ATOM      1  C   UNL     1      17.943   1.112  16.064  1.00  0.00     0.145 A 
ATOM      2  C   UNL     1      18.017   1.301  14.684  1.00  0.00     0.102 A 
ATOM      3  C   UNL     1      19.111   1.066  16.825  1.00  0.00     0.048 A 
ATOM      4  C   UNL     1      19.259   1.447  14.066  1.00  0.00     0.019 A 
ATOM      5  C   UNL     1      20.353   1.211  16.207  1.00  0.00     0.004 A 
ATOM      6  C   UNL     1      20.426   1.401  14.828  1.00  0.00     0.001 A 
ENDROOT
BRANCH   1   7
ATOM      7  O   UNL     1      16.740   0.970  16.687  1.00  0.00    -0.426 OA
BRANCH   7   8
ATOM      8  C   UNL     1      16.708  -0.056  17.644  1.00  0.00     0.308 C 
ATOM      9  O   UNL     1      16.519   0.089  18.844  1.00  0.00    -0.252 OA
ATOM     10  C   UNL     1      16.942  -1.381  16.981  1.00  0.00     0.139 C 
ENDBRANCH   7   8
ENDBRANCH   1   7
BRANCH   2  11
ATOM     11  C   UNL     1      16.810   1.354  13.871  1.00  0.00     0.339 C 
ATOM     12  O   UNL     1      16.339   2.352  13.334  1.00  0.00    -0.246 OA
BRANCH  11  13
ATOM     13  O   UNL     1      16.221   0.131  13.757  1.00  0.00    -0.478 OA
ATOM     14  H   UNL     1      15.296   0.199  13.437  1.00  0.00     0.297 HD
ENDBRANCH  11  13
ENDBRANCH   2  11
TORSDOF 4
ENDMDL
