MODEL 1
REMARK VINA RESULT:      -7.6      0.000      0.000
REMARK SMILES O=C(OOC(=O)c1ccccc1)c1ccccc1
REMARK SMILES IDX 3 1 4 2 5 3 6 4 7 5 8 6 12 7 9 8 11 9 10 10 2 11 1 12 13 13
REMARK SMILES IDX 14 14 18 15 15 16 17 17 16 18
REMARK H PARENT
ROOT
ATOM      1  O   UNL     1      18.609   0.523  17.665  1.00  0.00    -0.242 OA
ENDROOT
BRANCH   1   2
ATOM      2  O   UNL     1      18.681   1.588  16.672  1.00  0.00    -0.242 OA
BRANCH   2   3
ATOM      3  C   UNL     1      19.811   1.372  15.948  1.00  0.00     0.386 C 
ATOM      4  O   UNL     1      20.942   1.729  16.239  1.00  0.00    -0.242 OA
BRANCH   3   5
ATOM      5  C   UNL     1      19.488   0.627  14.704  1.00  0.00     0.064 A 
ATOM      6  C   UNL     1      19.831  -0.706  14.616  1.00  0.00     0.016 A 
ATOM      7  C   UNL     1      18.856   1.293  13.674  1.00  0.00     0.016 A 
ATOM      8  C   UNL     1      19.528  -1.405  13.447  1.00  0.00     0.001 A 
ATOM      9  C   UNL     1      18.553   0.595  12.505  1.00  0.00     0.001 A 
ATOM     10  C   UNL     1      18.889  -0.754  12.392  1.00  0.00     0.000 A 
ENDBRANCH   3   5
ENDBRANCH   2   3
ENDBRANCH   1   2
BRANCH   1  11
ATOM     11  C   UNL     1      17.294   0.166  17.805  1.00  0.00     0.386 C 
ATOM     12  O   UNL     1      16.573   0.519  18.747  1.00  0.00    -0.242 OA
BRANCH  11  13
ATOM     13  C   UNL     1      16.857  -0.689  16.712  1.00  0.00     0.064 A 
ATOM     14  C   UNL     1      16.088  -0.159  15.676  1.00  0.00     0.016 A 
ATOM     15  C   UNL     1      17.208  -2.039  16.701  1.00  0.00     0.016 A 
ATOM     16  C   UNL     1      15.670  -0.979  14.629  1.00  0.00     0.001 A 
ATOM     17  C   UNL     1      16.788  -2.859  15.654  1.00  0.00     0.001 A 
ATOM     18  C   UNL     1      16.019  -2.329  14.618  1.00  0.00     0.000 A 
ENDBRANCH  11  13
ENDBRANCH   1  11
TORSDOF 5
ENDMDL
MODEL 2
REMARK VINA RESULT:      -7.6      0.054      3.897
REMARK SMILES O=C(OOC(=O)c1ccccc1)c1ccccc1
REMARK SMILES IDX 3 1 4 2 5 3 6 4 7 5 8 6 12 7 9 8 11 9 10 10 2 11 1 12 13 13
REMARK SMILES IDX 14 14 18 15 15 16 17 17 16 18
REMARK H PARENT
ROOT
ATOM      1  O   UNL     1      18.738   1.560  16.755  1.00  0.00    -0.242 OA
ENDROOT
BRANCH   1   2
ATOM      2  O   UNL     1      18.644   0.442  17.685  1.00  0.00    -0.242 OA
BRANCH   2   3
ATOM      3  C   UNL     1      17.322   0.160  17.827  1.00  0.00     0.386 C 
ATOM      4  O   UNL     1      16.590   0.536  18.730  1.00  0.00    -0.242 OA
BRANCH   3   5
ATOM      5  C   UNL     1      16.860  -0.703  16.711  1.00  0.00     0.064 A 
ATOM      6  C   UNL     1      16.083  -0.148  15.715  1.00  0.00     0.016 A 
ATOM      7  C   UNL     1      17.221  -2.035  16.704  1.00  0.00     0.016 A 
ATOM      8  C   UNL     1      15.648  -0.960  14.667  1.00  0.00     0.001 A 
ATOM      9  C   UNL     1      16.786  -2.847  15.657  1.00  0.00     0.001 A 
ATOM     10  C   UNL     1      16.000  -2.309  14.638  1.00  0.00     0.000 A 
ENDBRANCH   3   5
ENDBRANCH   2   3
ENDBRANCH   1   2
BRANCH   1  11
ATOM     11  C   UNL     1      19.847   1.369  15.975  1.00  0.00     0.386 C 
ATOM     12  O   UNL     1      20.980   1.777  16.263  1.00  0.00    -0.242 OA
BRANCH  11  13
ATOM     13  C   UNL     1      19.523   0.634  14.763  1.00  0.00     0.064 A 
ATOM     14  C   UNL     1      18.853   1.271  13.718  1.00  0.00     0.016 A 
ATOM     15  C   UNL     1      19.881  -0.709  14.646  1.00  0.00     0.016 A 
ATOM     16  C   UNL     1      18.542   0.565  12.556  1.00  0.00     0.001 A 
ATOM     17  C   UNL     1      19.569  -1.415  13.484  1.00  0.00     0.001 A 
ATOM     18  C   UNL     1      18.900  -0.778  12.439  1.00  0.00     0.000 A 
ENDBRANCH  11  13
ENDBRANCH   1  11
TORSDOF 5
ENDMDL
MODEL 3
REMARK VINA RESULT:      -6.5      1.230      4.321
REMARK SMILES O=C(OOC(=O)c1ccccc1)c1ccccc1
REMARK SMILES IDX 3 1 4 2 5 3 6 4 7 5 8 6 12 7 9 8 11 9 10 10 2 11 1 12 13 13
REMARK SMILES IDX 14 14 18 15 15 16 17 17 16 18
REMARK H PARENT
ROOT
ATOM      1  O   UNL     1      19.220   1.297  16.209  1.00  0.00    -0.242 OA
ENDROOT
BRANCH   1   2
ATOM      2  O   UNL     1      19.002   0.257  17.207  1.00  0.00    -0.242 OA
BRANCH   2   3
ATOM      3  C   UNL     1      17.662   0.202  17.428  1.00  0.00     0.386 C 
ATOM      4  O   UNL     1      17.046   0.771  18.316  1.00  0.00    -0.242 OA
BRANCH   3   5
ATOM      5  C   UNL     1      17.012  -0.677  16.422  1.00  0.00     0.064 A 
ATOM      6  C   UNL     1      17.409  -1.995  16.333  1.00  0.00     0.016 A 
ATOM      7  C   UNL     1      16.032  -0.147  15.608  1.00  0.00     0.016 A 
ATOM      8  C   UNL     1      16.798  -2.820  15.387  1.00  0.00     0.001 A 
ATOM      9  C   UNL     1      15.422  -0.972  14.663  1.00  0.00     0.001 A 
ATOM     10  C   UNL     1      15.805  -2.308  14.553  1.00  0.00     0.000 A 
ENDBRANCH   3   5
ENDBRANCH   2   3
ENDBRANCH   1   2
BRANCH   1  11
ATOM     11  C   UNL     1      19.684   0.696  15.068  1.00  0.00     0.386 C 
ATOM     12  O   UNL     1      20.391  -0.319  15.054  1.00  0.00    -0.242 OA
BRANCH  11  13
ATOM     13  C   UNL     1      19.247   1.410  13.878  1.00  0.00     0.064 A 
ATOM     14  C   UNL     1      17.936   1.878  13.787  1.00  0.00     0.016 A 
ATOM     15  C   UNL     1      20.140   1.625  12.828  1.00  0.00     0.016 A 
ATOM     16  C   UNL     1      17.518   2.562  12.646  1.00  0.00     0.001 A 
ATOM     17  C   UNL     1      19.721   2.308  11.686  1.00  0.00     0.001 A 
ATOM     18  C   UNL     1      18.410   2.776  11.595  1.00  0.00     0.000 A 
ENDBRANCH  11  13
ENDBRANCH   1  11
TORSDOF 5
ENDMDL
