MODEL 1
REMARK VINA RESULT:      -7.2      0.000      0.000
REMARK SMILES Cc1ccc(-c2cc(C(F)(F)F)nn2-c2ccc(S(N)(=O)=O)cc2)cc1
REMARK SMILES IDX 15 1 16 2 24 3 18 4 17 5 23 6 19 7 21 8 22 9 20 10 14 13
REMARK SMILES IDX 13 14 6 15 8 16 7 17 5 18 4 19 25 20 3 21 26 22 2 23 1 24
REMARK SMILES IDX 9 25 10 26 11 27 12 28
REMARK H PARENT 20 11 20 12
ROOT
ATOM      1  C   UNL     1      19.011   1.438   4.962  1.00  0.00     0.065 A 
ATOM      2  C   UNL     1      20.201   1.661   4.283  1.00  0.00     0.030 A 
ATOM      3  C   UNL     1      17.925   2.286   4.800  1.00  0.00     0.030 A 
ATOM      4  C   UNL     1      19.221   3.614   3.253  1.00  0.00     0.082 A 
ATOM      5  C   UNL     1      20.306   2.756   3.423  1.00  0.00     0.024 A 
ATOM      6  C   UNL     1      18.030   3.380   3.941  1.00  0.00     0.024 A 
ENDROOT
BRANCH   4   7
ATOM      7  S   UNL     1      19.352   4.984   2.176  1.00  0.00     0.238 S 
ATOM      8  O   UNL     1      20.183   5.993   2.817  1.00  0.00    -0.207 OA
ATOM      9  O   UNL     1      19.699   4.496   0.849  1.00  0.00    -0.207 OA
BRANCH   7  10
ATOM     10  N   UNL     1      17.734   5.535   2.154  1.00  0.00    -0.225 NA
ATOM     11  H   UNL     1      17.028   4.960   2.629  1.00  0.00     0.137 HD
ATOM     12  H   UNL     1      17.575   6.546   2.240  1.00  0.00     0.137 HD
ENDBRANCH   7  10
ENDBRANCH   4   7
BRANCH   1  13
ATOM     13  N   UNL     1      18.907   0.342   5.823  1.00  0.00    -0.233 N 
ATOM     14  N   UNL     1      19.605   0.336   6.972  1.00  0.00    -0.163 NA
ATOM     15  C   UNL     1      18.147  -0.775   5.630  1.00  0.00     0.075 A 
ATOM     16  C   UNL     1      19.270  -0.833   7.523  1.00  0.00     0.167 A 
ATOM     17  C   UNL     1      18.366  -1.567   6.732  1.00  0.00     0.064 A 
BRANCH  15  18
ATOM     18  C   UNL     1      17.310  -1.009   4.479  1.00  0.00     0.000 A 
ATOM     19  C   UNL     1      15.941  -1.216   4.644  1.00  0.00     0.010 A 
ATOM     20  C   UNL     1      17.870  -1.028   3.201  1.00  0.00     0.010 A 
ATOM     21  C   UNL     1      15.130  -1.442   3.530  1.00  0.00     0.004 A 
ATOM     22  C   UNL     1      17.060  -1.254   2.088  1.00  0.00     0.004 A 
ATOM     23  C   UNL     1      15.691  -1.461   2.253  1.00  0.00    -0.051 A 
ATOM     24  C   UNL     1      14.826  -1.703   1.062  1.00  0.00     0.044 C 
ENDBRANCH  15  18
BRANCH  16  25
ATOM     25  C   UNL     1      19.842  -1.218   8.824  1.00  0.00     0.435 C 
ATOM     26  F   UNL     1      20.753  -0.318   9.293  1.00  0.00    -0.164 F 
ATOM     27  F   UNL     1      18.905  -1.343   9.807  1.00  0.00    -0.164 F 
ATOM     28  F   UNL     1      20.489  -2.416   8.763  1.00  0.00    -0.164 F 
ENDBRANCH  16  25
ENDBRANCH   1  13
TORSDOF 5
ENDMDL
MODEL 2
REMARK VINA RESULT:      -6.6      4.795      6.841
REMARK SMILES Cc1ccc(-c2cc(C(F)(F)F)nn2-c2ccc(S(N)(=O)=O)cc2)cc1
REMARK SMILES IDX 15 1 16 2 24 3 18 4 17 5 23 6 19 7 21 8 22 9 20 10 14 13
REMARK SMILES IDX 13 14 6 15 8 16 7 17 5 18 4 19 25 20 3 21 26 22 2 23 1 24
REMARK SMILES IDX 9 25 10 26 11 27 12 28
REMARK H PARENT 20 11 20 12
ROOT
ATOM      1  C   UNL     1      18.238  -0.404   5.476  1.00  0.00     0.065 A 
ATOM      2  C   UNL     1      18.647  -1.617   6.016  1.00  0.00     0.030 A 
ATOM      3  C   UNL     1      18.390   0.780   6.183  1.00  0.00     0.030 A 
ATOM      4  C   UNL     1      19.379  -0.460   8.006  1.00  0.00     0.082 A 
ATOM      5  C   UNL     1      19.221  -1.644   7.288  1.00  0.00     0.024 A 
ATOM      6  C   UNL     1      18.964   0.752   7.455  1.00  0.00     0.024 A 
ENDROOT
BRANCH   4   7
ATOM      7  S   UNL     1      20.097  -0.494   9.598  1.00  0.00     0.238 S 
ATOM      8  O   UNL     1      19.185  -1.188  10.498  1.00  0.00    -0.207 OA
ATOM      9  O   UNL     1      21.475  -0.946   9.474  1.00  0.00    -0.207 OA
BRANCH   7  10
ATOM     10  N   UNL     1      20.098   1.169   9.990  1.00  0.00    -0.225 NA
ATOM     11  H   UNL     1      20.934   1.550  10.450  1.00  0.00     0.137 HD
ATOM     12  H   UNL     1      19.658   1.815   9.324  1.00  0.00     0.137 HD
ENDBRANCH   7  10
ENDBRANCH   4   7
BRANCH   1  13
ATOM     13  N   UNL     1      17.664  -0.378   4.203  1.00  0.00    -0.233 N 
ATOM     14  N   UNL     1      16.756  -1.310   3.868  1.00  0.00    -0.163 NA
ATOM     15  C   UNL     1      17.925   0.523   3.211  1.00  0.00     0.075 A 
ATOM     16  C   UNL     1      16.434  -0.983   2.615  1.00  0.00     0.167 A 
ATOM     17  C   UNL     1      17.130   0.150   2.153  1.00  0.00     0.064 A 
BRANCH  15  18
ATOM     18  C   UNL     1      18.858   1.617   3.322  1.00  0.00     0.000 A 
ATOM     19  C   UNL     1      20.231   1.369   3.293  1.00  0.00     0.010 A 
ATOM     20  C   UNL     1      18.389   2.924   3.457  1.00  0.00     0.010 A 
ATOM     21  C   UNL     1      21.134   2.427   3.400  1.00  0.00     0.004 A 
ATOM     22  C   UNL     1      19.291   3.982   3.564  1.00  0.00     0.004 A 
ATOM     23  C   UNL     1      20.663   3.733   3.535  1.00  0.00    -0.051 A 
ATOM     24  C   UNL     1      21.628   4.865   3.651  1.00  0.00     0.044 C 
ENDBRANCH  15  18
BRANCH  16  25
ATOM     25  C   UNL     1      15.442  -1.786   1.881  1.00  0.00     0.435 C 
ATOM     26  F   UNL     1      15.695  -3.125   1.937  1.00  0.00    -0.164 F 
ATOM     27  F   UNL     1      14.171  -1.631   2.350  1.00  0.00    -0.164 F 
ATOM     28  F   UNL     1      15.401  -1.463   0.558  1.00  0.00    -0.164 F 
ENDBRANCH  16  25
ENDBRANCH   1  13
TORSDOF 5
ENDMDL
MODEL 3
REMARK VINA RESULT:      -6.6      5.740      8.494
REMARK SMILES Cc1ccc(-c2cc(C(F)(F)F)nn2-c2ccc(S(N)(=O)=O)cc2)cc1
REMARK SMILES IDX 15 1 16 2 24 3 18 4 17 5 23 6 19 7 21 8 22 9 20 10 14 13
REMARK SMILES IDX 13 14 6 15 8 16 7 17 5 18 4 19 25 20 3 21 26 22 2 23 1 24
REMARK SMILES IDX 9 25 10 26 11 27 12 28
REMARK H PARENT 20 11 20 12
ROOT
ATOM      1  C   UNL     1      21.812   3.990   1.869  1.00  0.00     0.065 A 
ATOM      2  C   UNL     1      21.043   3.496   2.915  1.00  0.00     0.030 A 
ATOM      3  C   UNL     1      21.217   4.514   0.730  1.00  0.00     0.030 A 
ATOM      4  C   UNL     1      19.043   4.054   1.679  1.00  0.00     0.082 A 
ATOM      5  C   UNL     1      19.651   3.529   2.819  1.00  0.00     0.024 A 
ATOM      6  C   UNL     1      19.826   4.547   0.634  1.00  0.00     0.024 A 
ENDROOT
BRANCH   4   7
ATOM      7  S   UNL     1      17.301   4.095   1.559  1.00  0.00     0.238 S 
ATOM      8  O   UNL     1      16.944   4.597   0.239  1.00  0.00    -0.207 OA
ATOM      9  O   UNL     1      16.777   2.815   2.013  1.00  0.00    -0.207 OA
BRANCH   7  10
ATOM     10  N   UNL     1      16.924   5.287   2.724  1.00  0.00    -0.225 NA
ATOM     11  H   UNL     1      16.152   5.932   2.513  1.00  0.00     0.137 HD
ATOM     12  H   UNL     1      16.986   5.022   3.714  1.00  0.00     0.137 HD
ENDBRANCH   7  10
ENDBRANCH   4   7
BRANCH   1  13
ATOM     13  N   UNL     1      23.205   3.957   1.966  1.00  0.00    -0.233 N 
ATOM     14  N   UNL     1      23.862   2.828   1.650  1.00  0.00    -0.163 NA
ATOM     15  C   UNL     1      24.018   4.980   2.361  1.00  0.00     0.075 A 
ATOM     16  C   UNL     1      25.140   3.154   1.855  1.00  0.00     0.167 A 
ATOM     17  C   UNL     1      25.298   4.481   2.298  1.00  0.00     0.064 A 
BRANCH  15  18
ATOM     18  C   UNL     1      23.558   6.290   2.750  1.00  0.00     0.000 A 
ATOM     19  C   UNL     1      22.919   6.468   3.977  1.00  0.00     0.010 A 
ATOM     20  C   UNL     1      23.751   7.379   1.900  1.00  0.00     0.010 A 
ATOM     21  C   UNL     1      22.474   7.735   4.355  1.00  0.00     0.004 A 
ATOM     22  C   UNL     1      23.305   8.646   2.277  1.00  0.00     0.004 A 
ATOM     23  C   UNL     1      22.667   8.823   3.504  1.00  0.00    -0.051 A 
ATOM     24  C   UNL     1      22.191  10.179   3.905  1.00  0.00     0.044 C 
ENDBRANCH  15  18
BRANCH  16  25
ATOM     25  C   UNL     1      26.197   2.159   1.612  1.00  0.00     0.435 C 
ATOM     26  F   UNL     1      27.453   2.686   1.689  1.00  0.00    -0.164 F 
ATOM     27  F   UNL     1      26.176   1.124   2.500  1.00  0.00    -0.164 F 
ATOM     28  F   UNL     1      26.097   1.598   0.374  1.00  0.00    -0.164 F 
ENDBRANCH  16  25
ENDBRANCH   1  13
TORSDOF 5
ENDMDL
