MODEL 1
REMARK VINA RESULT:      -4.8      0.000      0.000
REMARK SMILES Cc1ccc(-c2cc(C(F)(F)F)nn2-c2ccc(S(N)(=O)=O)cc2)cc1
REMARK SMILES IDX 15 1 16 2 24 3 18 4 17 5 23 6 19 7 21 8 22 9 20 10 14 13
REMARK SMILES IDX 13 14 6 15 8 16 7 17 5 18 4 19 25 20 3 21 26 22 2 23 1 24
REMARK SMILES IDX 9 25 10 26 11 27 12 28
REMARK H PARENT 20 11 20 12
ROOT
ATOM      1  C   UNL     1     -26.877   4.427 -54.957  1.00  0.00     0.065 A 
ATOM      2  C   UNL     1     -27.136   4.316 -56.317  1.00  0.00     0.030 A 
ATOM      3  C   UNL     1     -26.310   3.377 -54.249  1.00  0.00     0.030 A 
ATOM      4  C   UNL     1     -26.252   2.068 -56.280  1.00  0.00     0.082 A 
ATOM      5  C   UNL     1     -26.822   3.130 -56.982  1.00  0.00     0.024 A 
ATOM      6  C   UNL     1     -25.996   2.191 -54.914  1.00  0.00     0.024 A 
ENDROOT
BRANCH   4   7
ATOM      7  S   UNL     1     -25.858   0.584 -57.112  1.00  0.00     0.238 S 
ATOM      8  O   UNL     1     -26.729  -0.470 -56.609  1.00  0.00    -0.207 OA
ATOM      9  O   UNL     1     -25.802   0.856 -58.541  1.00  0.00    -0.207 OA
BRANCH   7  10
ATOM     10  N   UNL     1     -24.270   0.304 -56.544  1.00  0.00    -0.225 NA
ATOM     11  H   UNL     1     -23.520   0.232 -57.242  1.00  0.00     0.137 HD
ATOM     12  H   UNL     1     -23.987   0.772 -55.675  1.00  0.00     0.137 HD
ENDBRANCH   7  10
ENDBRANCH   4   7
BRANCH   1  13
ATOM     13  N   UNL     1     -27.192   5.614 -54.292  1.00  0.00    -0.233 N 
ATOM     14  N   UNL     1     -28.333   5.694 -53.588  1.00  0.00    -0.163 NA
ATOM     15  C   UNL     1     -26.447   6.758 -54.271  1.00  0.00     0.075 A 
ATOM     16  C   UNL     1     -28.305   6.938 -53.104  1.00  0.00     0.167 A 
ATOM     17  C   UNL     1     -27.154   7.647 -53.496  1.00  0.00     0.064 A 
BRANCH  15  18
ATOM     18  C   UNL     1     -25.184   6.927 -54.947  1.00  0.00     0.000 A 
ATOM     19  C   UNL     1     -24.004   6.502 -54.336  1.00  0.00     0.010 A 
ATOM     20  C   UNL     1     -25.143   7.514 -56.212  1.00  0.00     0.010 A 
ATOM     21  C   UNL     1     -22.782   6.665 -54.990  1.00  0.00     0.004 A 
ATOM     22  C   UNL     1     -23.921   7.678 -56.865  1.00  0.00     0.004 A 
ATOM     23  C   UNL     1     -22.742   7.253 -56.254  1.00  0.00    -0.051 A 
ATOM     24  C   UNL     1     -21.436   7.428 -56.954  1.00  0.00     0.044 C 
ENDBRANCH  15  18
BRANCH  16  25
ATOM     25  C   UNL     1     -29.409   7.419 -52.257  1.00  0.00     0.435 C 
ATOM     26  F   UNL     1     -30.181   6.408 -51.764  1.00  0.00    -0.164 F 
ATOM     27  F   UNL     1     -28.986   8.125 -51.170  1.00  0.00    -0.164 F 
ATOM     28  F   UNL     1     -30.254   8.243 -52.939  1.00  0.00    -0.164 F 
ENDBRANCH  16  25
ENDBRANCH   1  13
TORSDOF 5
ENDMDL
MODEL 2
REMARK VINA RESULT:      -4.7      5.573      7.499
REMARK SMILES Cc1ccc(-c2cc(C(F)(F)F)nn2-c2ccc(S(N)(=O)=O)cc2)cc1
REMARK SMILES IDX 15 1 16 2 24 3 18 4 17 5 23 6 19 7 21 8 22 9 20 10 14 13
REMARK SMILES IDX 13 14 6 15 8 16 7 17 5 18 4 19 25 20 3 21 26 22 2 23 1 24
REMARK SMILES IDX 9 25 10 26 11 27 12 28
REMARK H PARENT 20 11 20 12
ROOT
ATOM      1  C   UNL     1     -25.996   7.302 -52.331  1.00  0.00     0.065 A 
ATOM      2  C   UNL     1     -26.513   7.588 -51.075  1.00  0.00     0.030 A 
ATOM      3  C   UNL     1     -24.861   7.948 -52.801  1.00  0.00     0.030 A 
ATOM      4  C   UNL     1     -24.741   9.194 -50.735  1.00  0.00     0.082 A 
ATOM      5  C   UNL     1     -25.882   8.540 -50.272  1.00  0.00     0.024 A 
ATOM      6  C   UNL     1     -24.230   8.899 -51.999  1.00  0.00     0.024 A 
ENDROOT
BRANCH   4   7
ATOM      7  S   UNL     1     -23.950  10.385 -49.731  1.00  0.00     0.238 S 
ATOM      8  O   UNL     1     -22.784   9.766 -49.117  1.00  0.00    -0.207 OA
ATOM      9  O   UNL     1     -23.799  11.611 -50.500  1.00  0.00    -0.207 OA
BRANCH   7  10
ATOM     10  N   UNL     1     -25.139  10.635 -48.527  1.00  0.00    -0.225 NA
ATOM     11  H   UNL     1     -24.930  10.308 -47.577  1.00  0.00     0.137 HD
ATOM     12  H   UNL     1     -25.670  11.513 -48.558  1.00  0.00     0.137 HD
ENDBRANCH   7  10
ENDBRANCH   4   7
BRANCH   1  13
ATOM     13  N   UNL     1     -26.629   6.350 -53.134  1.00  0.00    -0.233 N 
ATOM     14  N   UNL     1     -26.216   5.072 -53.092  1.00  0.00    -0.163 NA
ATOM     15  C   UNL     1     -27.664   6.570 -53.996  1.00  0.00     0.075 A 
ATOM     16  C   UNL     1     -27.024   4.464 -53.964  1.00  0.00     0.167 A 
ATOM     17  C   UNL     1     -27.945   5.347 -54.558  1.00  0.00     0.064 A 
BRANCH  15  18
ATOM     18  C   UNL     1     -28.284   7.852 -54.221  1.00  0.00     0.000 A 
ATOM     19  C   UNL     1     -29.352   8.260 -53.421  1.00  0.00     0.010 A 
ATOM     20  C   UNL     1     -27.818   8.685 -55.239  1.00  0.00     0.010 A 
ATOM     21  C   UNL     1     -29.953   9.501 -53.638  1.00  0.00     0.004 A 
ATOM     22  C   UNL     1     -28.419   9.925 -55.457  1.00  0.00     0.004 A 
ATOM     23  C   UNL     1     -29.485  10.332 -54.656  1.00  0.00    -0.051 A 
ATOM     24  C   UNL     1     -30.127  11.658 -54.890  1.00  0.00     0.044 C 
ENDBRANCH  15  18
BRANCH  16  25
ATOM     25  C   UNL     1     -26.884   3.018 -54.206  1.00  0.00     0.435 C 
ATOM     26  F   UNL     1     -27.334   2.639 -55.437  1.00  0.00    -0.164 F 
ATOM     27  F   UNL     1     -25.594   2.583 -54.134  1.00  0.00    -0.164 F 
ATOM     28  F   UNL     1     -27.586   2.279 -53.301  1.00  0.00    -0.164 F 
ENDBRANCH  16  25
ENDBRANCH   1  13
TORSDOF 5
ENDMDL
MODEL 3
REMARK VINA RESULT:      -4.7      3.444      5.237
REMARK SMILES Cc1ccc(-c2cc(C(F)(F)F)nn2-c2ccc(S(N)(=O)=O)cc2)cc1
REMARK SMILES IDX 15 1 16 2 24 3 18 4 17 5 23 6 19 7 21 8 22 9 20 10 14 13
REMARK SMILES IDX 13 14 6 15 8 16 7 17 5 18 4 19 25 20 3 21 26 22 2 23 1 24
REMARK SMILES IDX 9 25 10 26 11 27 12 28
REMARK H PARENT 20 11 20 12
ROOT
ATOM      1  C   UNL     1     -24.007   4.501 -54.857  1.00  0.00     0.065 A 
ATOM      2  C   UNL     1     -23.500   5.245 -55.914  1.00  0.00     0.030 A 
ATOM      3  C   UNL     1     -23.201   3.616 -54.155  1.00  0.00     0.030 A 
ATOM      4  C   UNL     1     -21.341   4.214 -55.577  1.00  0.00     0.082 A 
ATOM      5  C   UNL     1     -22.160   5.101 -56.276  1.00  0.00     0.024 A 
ATOM      6  C   UNL     1     -21.861   3.472 -54.517  1.00  0.00     0.024 A 
ENDROOT
BRANCH   4   7
ATOM      7  S   UNL     1     -19.664   4.034 -56.030  1.00  0.00     0.238 S 
ATOM      8  O   UNL     1     -18.871   4.960 -55.233  1.00  0.00    -0.207 OA
ATOM      9  O   UNL     1     -19.336   2.616 -56.031  1.00  0.00    -0.207 OA
BRANCH   7  10
ATOM     10  N   UNL     1     -19.702   4.590 -57.645  1.00  0.00    -0.225 NA
ATOM     11  H   UNL     1     -19.831   3.891 -58.387  1.00  0.00     0.137 HD
ATOM     12  H   UNL     1     -20.173   5.484 -57.830  1.00  0.00     0.137 HD
ENDBRANCH   7  10
ENDBRANCH   4   7
BRANCH   1  13
ATOM     13  N   UNL     1     -25.348   4.646 -54.495  1.00  0.00    -0.233 N 
ATOM     14  N   UNL     1     -25.694   5.592 -53.605  1.00  0.00    -0.163 NA
ATOM     15  C   UNL     1     -26.400   3.908 -54.957  1.00  0.00     0.075 A 
ATOM     16  C   UNL     1     -27.017   5.442 -53.504  1.00  0.00     0.167 A 
ATOM     17  C   UNL     1     -27.512   4.409 -54.322  1.00  0.00     0.064 A 
BRANCH  15  18
ATOM     18  C   UNL     1     -26.291   2.836 -55.915  1.00  0.00     0.000 A 
ATOM     19  C   UNL     1     -26.075   1.529 -55.478  1.00  0.00     0.010 A 
ATOM     20  C   UNL     1     -26.402   3.106 -57.280  1.00  0.00     0.010 A 
ATOM     21  C   UNL     1     -25.970   0.491 -56.406  1.00  0.00     0.004 A 
ATOM     22  C   UNL     1     -26.296   2.069 -58.207  1.00  0.00     0.004 A 
ATOM     23  C   UNL     1     -26.081   0.762 -57.769  1.00  0.00    -0.051 A 
ATOM     24  C   UNL     1     -25.968  -0.346 -58.761  1.00  0.00     0.044 C 
ENDBRANCH  15  18
BRANCH  16  25
ATOM     25  C   UNL     1     -27.785   6.318 -52.603  1.00  0.00     0.435 C 
ATOM     26  F   UNL     1     -27.617   7.644 -52.879  1.00  0.00    -0.164 F 
ATOM     27  F   UNL     1     -29.129   6.098 -52.655  1.00  0.00    -0.164 F 
ATOM     28  F   UNL     1     -27.423   6.154 -51.300  1.00  0.00    -0.164 F 
ENDBRANCH  16  25
ENDBRANCH   1  13
TORSDOF 5
ENDMDL
