REMARK SMILES CC(C)Cc1ccc([C@@H](C)C(=O)O)cc1
REMARK SMILES IDX 5 1 8 2 6 3 15 4 7 5 14 6 9 7 10 8 11 9 12 10 13 11 4 13
REMARK SMILES IDX 2 14 1 15 3 16
REMARK H PARENT 13 12
ROOT
ATOM      1  C   UNL     1       1.653   0.739  -0.247  1.00  0.00    -0.048 A 
ATOM      2  C   UNL     1      -1.095   0.594   0.090  1.00  0.00    -0.034 A 
ATOM      3  C   UNL     1       0.869   0.228  -1.270  1.00  0.00     0.004 A 
ATOM      4  C   UNL     1       1.090   1.179   0.941  1.00  0.00     0.004 A 
ATOM      5  C   UNL     1      -0.513   0.155  -1.100  1.00  0.00     0.005 A 
ATOM      6  C   UNL     1      -0.293   1.106   1.110  1.00  0.00     0.005 A 
ENDROOT
BRANCH   2   7
ATOM      7  C   UNL     1      -2.573   0.515   0.272  1.00  0.00     0.126 C 
ATOM      8  C   UNL     1      -3.374   1.349  -0.749  1.00  0.00     0.025 C 
BRANCH   7   9
ATOM      9  C   UNL     1      -3.100  -0.923   0.233  1.00  0.00     0.310 C 
ATOM     10  O   UNL     1      -2.401  -1.911   0.053  1.00  0.00    -0.252 OA
BRANCH   9  11
ATOM     11  O   UNL     1      -4.446  -1.003   0.411  1.00  0.00    -0.481 OA
ATOM     12  H   UNL     1      -4.764  -1.931   0.378  1.00  0.00     0.296 HD
ENDBRANCH   9  11
ENDBRANCH   7   9
ENDBRANCH   2   7
BRANCH   1  13
ATOM     13  C   UNL     1       3.149   0.819  -0.431  1.00  0.00     0.038 C 
BRANCH  13  14
ATOM     14  C   UNL     1       3.902  -0.441   0.036  1.00  0.00    -0.013 C 
ATOM     15  C   UNL     1       3.608  -0.776   1.500  1.00  0.00     0.008 C 
ATOM     16  C   UNL     1       3.524  -1.630  -0.851  1.00  0.00     0.008 C 
ENDBRANCH  13  14
ENDBRANCH   1  13
TORSDOF 5
