MODEL 1
REMARK VINA RESULT:      -4.5      0.000      0.000
REMARK SMILES CC(C)Cc1ccc([C@@H](C)C(=O)O)cc1
REMARK SMILES IDX 5 1 8 2 6 3 15 4 7 5 14 6 9 7 10 8 11 9 12 10 13 11 4 13
REMARK SMILES IDX 2 14 1 15 3 16
REMARK H PARENT 13 12
ROOT
ATOM      1  C   UNL     1     -12.028   3.660 -43.009  1.00  0.00    -0.048 A 
ATOM      2  C   UNL     1     -12.818   5.325 -40.938  1.00  0.00    -0.034 A 
ATOM      3  C   UNL     1     -11.821   3.259 -41.698  1.00  0.00     0.004 A 
ATOM      4  C   UNL     1     -12.622   4.878 -43.305  1.00  0.00     0.004 A 
ATOM      5  C   UNL     1     -12.218   4.097 -40.657  1.00  0.00     0.005 A 
ATOM      6  C   UNL     1     -13.019   5.715 -42.262  1.00  0.00     0.005 A 
ENDROOT
BRANCH   2   7
ATOM      7  C   UNL     1     -13.241   6.222 -39.824  1.00  0.00     0.126 C 
ATOM      8  C   UNL     1     -12.883   7.706 -40.045  1.00  0.00     0.025 C 
BRANCH   7   9
ATOM      9  C   UNL     1     -14.741   6.131 -39.527  1.00  0.00     0.310 C 
ATOM     10  O   UNL     1     -15.589   6.863 -40.019  1.00  0.00    -0.252 OA
BRANCH   9  11
ATOM     11  O   UNL     1     -15.051   5.148 -38.639  1.00  0.00    -0.481 OA
ATOM     12  H   UNL     1     -14.248   4.758 -38.232  1.00  0.00     0.296 HD
ENDBRANCH   9  11
ENDBRANCH   7   9
ENDBRANCH   2   7
BRANCH   1  13
ATOM     13  C   UNL     1     -11.599   2.753 -44.137  1.00  0.00     0.038 C 
BRANCH  13  14
ATOM     14  C   UNL     1     -12.271   1.367 -44.111  1.00  0.00    -0.013 C 
ATOM     15  C   UNL     1     -13.054   1.085 -45.395  1.00  0.00     0.008 C 
ATOM     16  C   UNL     1     -11.213   0.281 -43.903  1.00  0.00     0.008 C 
ENDBRANCH  13  14
ENDBRANCH   1  13
TORSDOF 5
ENDMDL
MODEL 2
REMARK VINA RESULT:      -4.3     15.532     16.745
REMARK SMILES CC(C)Cc1ccc([C@@H](C)C(=O)O)cc1
REMARK SMILES IDX 5 1 8 2 6 3 15 4 7 5 14 6 9 7 10 8 11 9 12 10 13 11 4 13
REMARK SMILES IDX 2 14 1 15 3 16
REMARK H PARENT 13 12
ROOT
ATOM      1  C   UNL     1     -26.124   5.971 -53.387  1.00  0.00    -0.048 A 
ATOM      2  C   UNL     1     -25.999   8.059 -51.567  1.00  0.00    -0.034 A 
ATOM      3  C   UNL     1     -25.047   6.843 -53.426  1.00  0.00     0.004 A 
ATOM      4  C   UNL     1     -27.140   6.122 -52.455  1.00  0.00     0.004 A 
ATOM      5  C   UNL     1     -24.985   7.893 -52.511  1.00  0.00     0.005 A 
ATOM      6  C   UNL     1     -27.076   7.173 -51.540  1.00  0.00     0.005 A 
ENDROOT
BRANCH   2   7
ATOM      7  C   UNL     1     -25.933   9.183 -50.589  1.00  0.00     0.126 C 
ATOM      8  C   UNL     1     -27.313   9.684 -50.118  1.00  0.00     0.025 C 
BRANCH   7   9
ATOM      9  C   UNL     1     -25.099   8.843 -49.349  1.00  0.00     0.310 C 
ATOM     10  O   UNL     1     -23.931   9.171 -49.190  1.00  0.00    -0.252 OA
BRANCH   9  11
ATOM     11  O   UNL     1     -25.787   8.119 -48.426  1.00  0.00    -0.481 OA
ATOM     12  H   UNL     1     -26.109   7.269 -48.795  1.00  0.00     0.296 HD
ENDBRANCH   9  11
ENDBRANCH   7   9
ENDBRANCH   2   7
BRANCH   1  13
ATOM     13  C   UNL     1     -26.192   4.834 -54.376  1.00  0.00     0.038 C 
BRANCH  13  14
ATOM     14  C   UNL     1     -25.975   3.445 -53.745  1.00  0.00    -0.013 C 
ATOM     15  C   UNL     1     -27.257   2.609 -53.745  1.00  0.00     0.008 C 
ATOM     16  C   UNL     1     -24.872   2.698 -54.500  1.00  0.00     0.008 C 
ENDBRANCH  13  14
ENDBRANCH   1  13
TORSDOF 5
ENDMDL
MODEL 3
REMARK VINA RESULT:      -4.3     15.583     16.801
REMARK SMILES CC(C)Cc1ccc([C@@H](C)C(=O)O)cc1
REMARK SMILES IDX 5 1 8 2 6 3 15 4 7 5 14 6 9 7 10 8 11 9 12 10 13 11 4 13
REMARK SMILES IDX 2 14 1 15 3 16
REMARK H PARENT 13 12
ROOT
ATOM      1  C   UNL     1     -26.185   5.873 -53.502  1.00  0.00    -0.048 A 
ATOM      2  C   UNL     1     -26.109   7.914 -51.627  1.00  0.00    -0.034 A 
ATOM      3  C   UNL     1     -27.136   5.905 -52.493  1.00  0.00     0.004 A 
ATOM      4  C   UNL     1     -25.197   6.841 -53.591  1.00  0.00     0.004 A 
ATOM      5  C   UNL     1     -27.097   6.932 -51.551  1.00  0.00     0.005 A 
ATOM      6  C   UNL     1     -25.159   7.868 -52.648  1.00  0.00     0.005 A 
ENDROOT
BRANCH   2   7
ATOM      7  C   UNL     1     -26.066   9.011 -50.618  1.00  0.00     0.126 C 
ATOM      8  C   UNL     1     -27.449   9.610 -50.288  1.00  0.00     0.025 C 
BRANCH   7   9
ATOM      9  C   UNL     1     -25.405   8.584 -49.304  1.00  0.00     0.310 C 
ATOM     10  O   UNL     1     -24.218   8.313 -49.183  1.00  0.00    -0.252 OA
BRANCH   9  11
ATOM     11  O   UNL     1     -26.277   8.522 -48.262  1.00  0.00    -0.481 OA
ATOM     12  H   UNL     1     -26.656   7.623 -48.156  1.00  0.00     0.296 HD
ENDBRANCH   9  11
ENDBRANCH   7   9
ENDBRANCH   2   7
BRANCH   1  13
ATOM     13  C   UNL     1     -26.228   4.762 -54.523  1.00  0.00     0.038 C 
BRANCH  13  14
ATOM     14  C   UNL     1     -25.979   3.362 -53.931  1.00  0.00    -0.013 C 
ATOM     15  C   UNL     1     -26.677   2.265 -54.738  1.00  0.00     0.008 C 
ATOM     16  C   UNL     1     -24.475   3.083 -53.874  1.00  0.00     0.008 C 
ENDBRANCH  13  14
ENDBRANCH   1  13
TORSDOF 5
ENDMDL
