REMARK SMILES NC(N)=NCCC[C@H](N)C(=O)O
REMARK SMILES IDX 7 1 8 2 10 3 11 4 12 5 9 7 6 10 5 11 4 12 2 13 1 14 3 15
REMARK H PARENT 12 6 9 8 9 9 1 16 1 17 3 18 3 19
ROOT
ATOM      1  C   UNL     1      -0.770   0.493  -0.870  1.00  0.00     0.032 C 
ENDROOT
BRANCH   1   2
ATOM      2  C   UNL     1      -2.299   0.356  -0.813  1.00  0.00     0.162 C 
BRANCH   2   3
ATOM      3  C   UNL     1      -2.746  -0.721   0.159  1.00  0.00     0.320 C 
ATOM      4  O   UNL     1      -3.444  -0.531   1.147  1.00  0.00    -0.251 OA
BRANCH   3   5
ATOM      5  O   UNL     1      -2.303  -1.954  -0.204  1.00  0.00    -0.480 OA
ATOM      6  H   UNL     1      -2.603  -2.648   0.421  1.00  0.00     0.296 HD
ENDBRANCH   3   5
ENDBRANCH   2   3
BRANCH   2   7
ATOM      7  N   UNL     1      -2.892   1.602  -0.334  1.00  0.00    -0.318 NA
ATOM      8  H   UNL     1      -3.908   1.542  -0.388  1.00  0.00     0.119 HD
ATOM      9  H   UNL     1      -2.621   2.369  -0.949  1.00  0.00     0.119 HD
ENDBRANCH   2   7
ENDBRANCH   1   2
BRANCH   1  10
ATOM     10  C   UNL     1      -0.171   0.875   0.492  1.00  0.00     0.026 C 
BRANCH  10  11
ATOM     11  C   UNL     1       1.345   1.033   0.437  1.00  0.00     0.146 C 
BRANCH  11  12
ATOM     12  N   UNL     1       1.964  -0.236   0.050  1.00  0.00    -0.254 NA
ATOM     13  C   UNL     1       3.260  -0.263   0.006  1.00  0.00     0.185 C 
ATOM     14  N   UNL     1       3.918  -1.417  -0.350  1.00  0.00    -0.370 N 
ATOM     15  N   UNL     1       4.137   0.763   0.281  1.00  0.00    -0.370 N 
ATOM     16  H   UNL     1       3.406  -2.261  -0.582  1.00  0.00     0.159 HD
ATOM     17  H   UNL     1       4.931  -1.459  -0.390  1.00  0.00     0.159 HD
ATOM     18  H   UNL     1       5.139   0.625   0.213  1.00  0.00     0.159 HD
ATOM     19  H   UNL     1       3.821   1.686   0.556  1.00  0.00     0.159 HD
ENDBRANCH  11  12
ENDBRANCH  10  11
ENDBRANCH   1  10
TORSDOF 7
