MODEL 1
REMARK VINA RESULT:      -5.6      0.000      0.000
REMARK SMILES NC(N)=NCCC[C@H](N)C(=O)O
REMARK SMILES IDX 7 1 8 2 10 3 11 4 12 5 9 7 6 10 5 11 4 12 2 13 1 14 3 15
REMARK H PARENT 12 6 9 8 9 9 1 16 1 17 3 18 3 19
ROOT
ATOM      1  C   UNL     1      18.737   0.604  17.253  1.00  0.00     0.032 C 
ENDROOT
BRANCH   1   2
ATOM      2  C   UNL     1      17.295   0.089  17.385  1.00  0.00     0.162 C 
BRANCH   2   3
ATOM      3  C   UNL     1      17.198  -1.413  17.187  1.00  0.00     0.320 C 
ATOM      4  O   UNL     1      17.082  -1.974  16.105  1.00  0.00    -0.251 OA
BRANCH   3   5
ATOM      5  O   UNL     1      17.283  -2.090  18.363  1.00  0.00    -0.480 OA
ATOM      6  H   UNL     1      16.525  -1.894  18.953  1.00  0.00     0.296 HD
ENDBRANCH   3   5
ENDBRANCH   2   3
BRANCH   2   7
ATOM      7  N   UNL     1      16.795   0.351  18.732  1.00  0.00    -0.318 NA
ATOM      8  H   UNL     1      16.934   1.334  18.965  1.00  0.00     0.119 HD
ATOM      9  H   UNL     1      17.342  -0.180  19.410  1.00  0.00     0.119 HD
ENDBRANCH   2   7
ENDBRANCH   1   2
BRANCH   1  10
ATOM     10  C   UNL     1      18.917   1.515  16.030  1.00  0.00     0.026 C 
BRANCH  10  11
ATOM     11  C   UNL     1      20.023   1.026  15.099  1.00  0.00     0.146 C 
BRANCH  11  12
ATOM     12  N   UNL     1      19.442   0.561  13.838  1.00  0.00    -0.254 NA
ATOM     13  C   UNL     1      19.349  -0.722  13.677  1.00  0.00     0.185 C 
ATOM     14  N   UNL     1      18.816  -1.239  12.519  1.00  0.00    -0.370 N 
ATOM     15  N   UNL     1      19.730  -1.714  14.553  1.00  0.00    -0.370 N 
ATOM     16  H   UNL     1      18.489  -0.631  11.777  1.00  0.00     0.159 HD
ATOM     17  H   UNL     1      18.733  -2.240  12.374  1.00  0.00     0.159 HD
ATOM     18  H   UNL     1      19.607  -2.693  14.319  1.00  0.00     0.159 HD
ATOM     19  H   UNL     1      20.145  -1.510  15.455  1.00  0.00     0.159 HD
ENDBRANCH  11  12
ENDBRANCH  10  11
ENDBRANCH   1  10
TORSDOF 7
ENDMDL
MODEL 2
REMARK VINA RESULT:      -5.5      2.527      4.048
REMARK SMILES NC(N)=NCCC[C@H](N)C(=O)O
REMARK SMILES IDX 7 1 8 2 10 3 11 4 12 5 9 7 6 10 5 11 4 12 2 13 1 14 3 15
REMARK H PARENT 12 6 9 8 9 9 1 16 1 17 3 18 3 19
ROOT
ATOM      1  C   UNL     1      18.632   1.430  14.720  1.00  0.00     0.032 C 
ENDROOT
BRANCH   1   2
ATOM      2  C   UNL     1      19.824   0.913  15.541  1.00  0.00     0.162 C 
BRANCH   2   3
ATOM      3  C   UNL     1      20.160  -0.533  15.222  1.00  0.00     0.320 C 
ATOM      4  O   UNL     1      19.519  -1.255  14.469  1.00  0.00    -0.251 OA
BRANCH   3   5
ATOM      5  O   UNL     1      21.290  -0.947  15.854  1.00  0.00    -0.480 OA
ATOM      6  H   UNL     1      21.662  -0.247  16.432  1.00  0.00     0.296 HD
ENDBRANCH   3   5
ENDBRANCH   2   3
BRANCH   2   7
ATOM      7  N   UNL     1      21.021   1.685  15.218  1.00  0.00    -0.318 NA
ATOM      8  H   UNL     1      21.315   2.220  16.035  1.00  0.00     0.119 HD
ATOM      9  H   UNL     1      20.803   2.370  14.495  1.00  0.00     0.119 HD
ENDBRANCH   2   7
ENDBRANCH   1   2
BRANCH   1  10
ATOM     10  C   UNL     1      17.380   1.638  15.585  1.00  0.00     0.026 C 
BRANCH  10  11
ATOM     11  C   UNL     1      16.573   0.355  15.760  1.00  0.00     0.146 C 
BRANCH  11  12
ATOM     12  N   UNL     1      16.725  -0.146  17.127  1.00  0.00    -0.254 NA
ATOM     13  C   UNL     1      17.048  -1.395  17.257  1.00  0.00     0.185 C 
ATOM     14  N   UNL     1      17.208  -1.943  18.509  1.00  0.00    -0.370 N 
ATOM     15  N   UNL     1      17.270  -2.320  16.261  1.00  0.00    -0.370 N 
ATOM     16  H   UNL     1      17.078  -1.385  19.345  1.00  0.00     0.159 HD
ATOM     17  H   UNL     1      17.461  -2.918  18.632  1.00  0.00     0.159 HD
ATOM     18  H   UNL     1      17.519  -3.277  16.483  1.00  0.00     0.159 HD
ATOM     19  H   UNL     1      17.190  -2.086  15.278  1.00  0.00     0.159 HD
ENDBRANCH  11  12
ENDBRANCH  10  11
ENDBRANCH   1  10
TORSDOF 7
ENDMDL
MODEL 3
REMARK VINA RESULT:      -5.5      1.881      2.882
REMARK SMILES NC(N)=NCCC[C@H](N)C(=O)O
REMARK SMILES IDX 7 1 8 2 10 3 11 4 12 5 9 7 6 10 5 11 4 12 2 13 1 14 3 15
REMARK H PARENT 12 6 9 8 9 9 1 16 1 17 3 18 3 19
ROOT
ATOM      1  C   UNL     1      16.990  -1.890  16.004  1.00  0.00     0.032 C 
ENDROOT
BRANCH   1   2
ATOM      2  C   UNL     1      17.512  -1.306  17.326  1.00  0.00     0.162 C 
BRANCH   2   3
ATOM      3  C   UNL     1      16.812  -0.012  17.702  1.00  0.00     0.320 C 
ATOM      4  O   UNL     1      16.545   0.894  16.923  1.00  0.00    -0.251 OA
BRANCH   3   5
ATOM      5  O   UNL     1      16.480   0.026  19.019  1.00  0.00    -0.480 OA
ATOM      6  H   UNL     1      16.598   0.922  19.399  1.00  0.00     0.296 HD
ENDBRANCH   3   5
ENDBRANCH   2   3
BRANCH   2   7
ATOM      7  N   UNL     1      17.250  -2.238  18.419  1.00  0.00    -0.318 NA
ATOM      8  H   UNL     1      16.255  -2.235  18.642  1.00  0.00     0.119 HD
ATOM      9  H   UNL     1      17.730  -1.923  19.261  1.00  0.00     0.119 HD
ENDBRANCH   2   7
ENDBRANCH   1   2
BRANCH   1  10
ATOM     10  C   UNL     1      18.070  -1.907  14.912  1.00  0.00     0.026 C 
BRANCH  10  11
ATOM     11  C   UNL     1      18.314  -0.526  14.312  1.00  0.00     0.146 C 
BRANCH  11  12
ATOM     12  N   UNL     1      19.688  -0.101  14.583  1.00  0.00    -0.254 NA
ATOM     13  C   UNL     1      19.839   1.054  15.152  1.00  0.00     0.185 C 
ATOM     14  N   UNL     1      21.099   1.526  15.439  1.00  0.00    -0.370 N 
ATOM     15  N   UNL     1      18.859   1.941  15.539  1.00  0.00    -0.370 N 
ATOM     16  H   UNL     1      21.925   0.984  15.213  1.00  0.00     0.159 HD
ATOM     17  H   UNL     1      21.238   2.427  15.885  1.00  0.00     0.159 HD
ATOM     18  H   UNL     1      19.097   2.823  15.980  1.00  0.00     0.159 HD
ATOM     19  H   UNL     1      17.873   1.753  15.399  1.00  0.00     0.159 HD
ENDBRANCH  11  12
ENDBRANCH  10  11
ENDBRANCH   1  10
TORSDOF 7
ENDMDL
