MODEL 1
REMARK VINA RESULT:      -3.2      0.000      0.000
REMARK SMILES [H]/N=C(/N=C(N)N)N(C)C
REMARK SMILES IDX 4 1 6 2 7 3 5 4 3 9 8 10 2 11 9 12 10 13 1 14
REMARK H PARENT 6 5 6 6 7 7 7 8
ROOT
ATOM      1  N   UNL     1     -15.473   6.999 -40.011  1.00  0.00    -0.180 NA
ATOM      2  N   UNL     1     -16.409   9.081 -39.532  1.00  0.00    -0.370 N 
ATOM      3  N   UNL     1     -14.791   8.312 -38.115  1.00  0.00    -0.370 N 
ATOM      4  C   UNL     1     -15.535   8.059 -39.247  1.00  0.00     0.194 C 
ATOM      5  H   UNL     1     -16.466   9.909 -38.949  1.00  0.00     0.159 HD
ATOM      6  H   UNL     1     -17.023   9.035 -40.338  1.00  0.00     0.159 HD
ATOM      7  H   UNL     1     -14.099   7.656 -37.771  1.00  0.00     0.159 HD
ATOM      8  H   UNL     1     -14.913   9.171 -37.589  1.00  0.00     0.159 HD
ENDROOT
BRANCH   1   9
ATOM      9  C   UNL     1     -14.571   6.010 -39.662  1.00  0.00     0.220 C 
ATOM     10  N   UNL     1     -13.354   5.874 -40.340  1.00  0.00    -0.347 N 
ATOM     11  N   UNL     1     -14.953   5.267 -38.665  1.00  0.00    -0.267 NA
ATOM     12  C   UNL     1     -12.988   6.744 -41.452  1.00  0.00     0.146 C 
ATOM     13  C   UNL     1     -12.333   4.931 -39.897  1.00  0.00     0.146 C 
ATOM     14  H   UNL     1     -14.245   4.560 -38.453  1.00  0.00     0.191 HD
ENDBRANCH   1   9
TORSDOF 1
ENDMDL
MODEL 2
REMARK VINA RESULT:      -3.2     15.472     16.568
REMARK SMILES [H]/N=C(/N=C(N)N)N(C)C
REMARK SMILES IDX 4 1 6 2 7 3 5 4 3 9 8 10 2 11 9 12 10 13 1 14
REMARK H PARENT 6 5 6 6 7 7 7 8
ROOT
ATOM      1  N   UNL     1     -25.351   8.156 -50.772  1.00  0.00    -0.180 NA
ATOM      2  N   UNL     1     -23.862   8.542 -49.018  1.00  0.00    -0.370 N 
ATOM      3  N   UNL     1     -26.092   8.567 -48.521  1.00  0.00    -0.370 N 
ATOM      4  C   UNL     1     -25.141   8.407 -49.505  1.00  0.00     0.194 C 
ATOM      5  H   UNL     1     -23.686   8.736 -48.039  1.00  0.00     0.159 HD
ATOM      6  H   UNL     1     -23.058   8.450 -49.628  1.00  0.00     0.159 HD
ATOM      7  H   UNL     1     -27.084   8.496 -48.718  1.00  0.00     0.159 HD
ATOM      8  H   UNL     1     -25.826   8.761 -47.562  1.00  0.00     0.159 HD
ENDROOT
BRANCH   1   9
ATOM      9  C   UNL     1     -26.663   8.034 -51.192  1.00  0.00     0.220 C 
ATOM     10  N   UNL     1     -27.306   9.083 -51.860  1.00  0.00    -0.347 N 
ATOM     11  N   UNL     1     -27.203   6.880 -50.927  1.00  0.00    -0.267 NA
ATOM     12  C   UNL     1     -26.639  10.353 -52.124  1.00  0.00     0.146 C 
ATOM     13  C   UNL     1     -28.638   8.923 -52.431  1.00  0.00     0.146 C 
ATOM     14  H   UNL     1     -28.168   6.850 -51.264  1.00  0.00     0.191 HD
ENDBRANCH   1   9
TORSDOF 1
ENDMDL
MODEL 3
REMARK VINA RESULT:      -3.1     15.535     16.680
REMARK SMILES [H]/N=C(/N=C(N)N)N(C)C
REMARK SMILES IDX 4 1 6 2 7 3 5 4 3 9 8 10 2 11 9 12 10 13 1 14
REMARK H PARENT 6 5 6 6 7 7 7 8
ROOT
ATOM      1  N   UNL     1     -25.650   8.539 -50.704  1.00  0.00    -0.180 NA
ATOM      2  N   UNL     1     -24.058   8.351 -49.010  1.00  0.00    -0.370 N 
ATOM      3  N   UNL     1     -26.212   8.771 -48.377  1.00  0.00    -0.370 N 
ATOM      4  C   UNL     1     -25.350   8.558 -49.431  1.00  0.00     0.194 C 
ATOM      5  H   UNL     1     -23.812   8.362 -48.026  1.00  0.00     0.159 HD
ATOM      6  H   UNL     1     -23.312   8.181 -49.675  1.00  0.00     0.159 HD
ATOM      7  H   UNL     1     -27.202   8.937 -48.520  1.00  0.00     0.159 HD
ATOM      8  H   UNL     1     -25.880   8.765 -47.419  1.00  0.00     0.159 HD
ENDROOT
BRANCH   1   9
ATOM      9  C   UNL     1     -26.970   8.756 -51.054  1.00  0.00     0.220 C 
ATOM     10  N   UNL     1     -27.751   7.728 -51.596  1.00  0.00    -0.347 N 
ATOM     11  N   UNL     1     -27.394   9.963 -50.816  1.00  0.00    -0.267 NA
ATOM     12  C   UNL     1     -27.210   6.395 -51.838  1.00  0.00     0.146 C 
ATOM     13  C   UNL     1     -29.179   7.898 -51.840  1.00  0.00     0.146 C 
ATOM     14  H   UNL     1     -28.374  10.060 -51.091  1.00  0.00     0.191 HD
ENDBRANCH   1   9
TORSDOF 1
ENDMDL
