MODEL 1
REMARK VINA RESULT:      -7.7      0.000      0.000
REMARK SMILES COc1ccc2cc([C@H](C)C(=O)O)ccc2c1
REMARK SMILES IDX 9 1 10 2 8 3 3 4 17 5 4 6 16 7 5 8 6 9 15 10 7 11 14 12 2 13
REMARK SMILES IDX 1 14 11 15 12 16 13 17
REMARK H PARENT 13 18
ROOT
ATOM      1  C   UNL     1      18.273   1.081  16.326  1.00  0.00     0.126 C 
ATOM      2  C   UNL     1      19.466   1.320  17.274  1.00  0.00     0.025 C 
ENDROOT
BRANCH   1   3
ATOM      3  C   UNL     1      18.674   0.674  14.949  1.00  0.00    -0.033 A 
ATOM      4  C   UNL     1      19.884   0.492  10.038  1.00  0.00     0.119 A 
ATOM      5  C   UNL     1      19.806  -0.462  11.052  1.00  0.00     0.055 A 
ATOM      6  C   UNL     1      19.588   1.824  10.310  1.00  0.00     0.047 A 
ATOM      7  C   UNL     1      19.430  -0.095  12.355  1.00  0.00    -0.015 A 
ATOM      8  C   UNL     1      19.213   2.207  11.598  1.00  0.00     0.012 A 
ATOM      9  C   UNL     1      19.128   1.260  12.631  1.00  0.00    -0.018 A 
ATOM     10  C   UNL     1      19.345  -1.042  13.388  1.00  0.00     0.009 A 
ATOM     11  C   UNL     1      18.753   1.628  13.934  1.00  0.00     0.013 A 
ATOM     12  C   UNL     1      18.970  -0.659  14.676  1.00  0.00     0.005 A 
BRANCH   4  13
ATOM     13  O   UNL     1      20.249   0.120   8.780  1.00  0.00    -0.497 OA
ATOM     14  C   UNL     1      19.859  -1.183   8.351  1.00  0.00     0.278 C 
ENDBRANCH   4  13
ENDBRANCH   1   3
BRANCH   1  15
ATOM     15  C   UNL     1      17.310   0.083  16.978  1.00  0.00     0.310 C 
ATOM     16  O   UNL     1      16.103   0.056  16.778  1.00  0.00    -0.252 OA
BRANCH  15  17
ATOM     17  O   UNL     1      17.931  -0.784  17.822  1.00  0.00    -0.481 OA
ATOM     18  H   UNL     1      18.153  -1.631  17.378  1.00  0.00     0.296 HD
ENDBRANCH  15  17
ENDBRANCH   1  15
TORSDOF 4
ENDMDL
MODEL 2
REMARK VINA RESULT:      -7.4      1.875      2.888
REMARK SMILES COc1ccc2cc([C@H](C)C(=O)O)ccc2c1
REMARK SMILES IDX 9 1 10 2 8 3 3 4 17 5 4 6 16 7 5 8 6 9 15 10 7 11 14 12 2 13
REMARK SMILES IDX 1 14 11 15 12 16 13 17
REMARK H PARENT 13 18
ROOT
ATOM      1  C   UNL     1      19.171   0.477  15.018  1.00  0.00     0.126 C 
ATOM      2  C   UNL     1      18.174   1.440  15.693  1.00  0.00     0.025 C 
ENDROOT
BRANCH   1   3
ATOM      3  C   UNL     1      19.326   0.705  13.552  1.00  0.00    -0.033 A 
ATOM      4  C   UNL     1      19.782   0.247   8.533  1.00  0.00     0.119 A 
ATOM      5  C   UNL     1      19.764   1.333   9.409  1.00  0.00     0.055 A 
ATOM      6  C   UNL     1      19.656  -1.048   9.025  1.00  0.00     0.047 A 
ATOM      7  C   UNL     1      19.618   1.135  10.792  1.00  0.00    -0.015 A 
ATOM      8  C   UNL     1      19.511  -1.263  10.396  1.00  0.00     0.012 A 
ATOM      9  C   UNL     1      19.490  -0.182  11.292  1.00  0.00    -0.018 A 
ATOM     10  C   UNL     1      19.598   2.216  11.689  1.00  0.00     0.009 A 
ATOM     11  C   UNL     1      19.344  -0.381  12.675  1.00  0.00     0.013 A 
ATOM     12  C   UNL     1      19.453   2.001  13.059  1.00  0.00     0.005 A 
BRANCH   4  13
ATOM     13  O   UNL     1      19.925   0.456   7.195  1.00  0.00    -0.497 OA
ATOM     14  C   UNL     1      18.731   0.552   6.422  1.00  0.00     0.278 C 
ENDBRANCH   4  13
ENDBRANCH   1   3
BRANCH   1  15
ATOM     15  C   UNL     1      20.506   0.535  15.767  1.00  0.00     0.310 C 
ATOM     16  O   UNL     1      20.974   1.550  16.268  1.00  0.00    -0.252 OA
BRANCH  15  17
ATOM     17  O   UNL     1      21.143  -0.665  15.816  1.00  0.00    -0.481 OA
ATOM     18  H   UNL     1      21.741  -0.793  15.049  1.00  0.00     0.296 HD
ENDBRANCH  15  17
ENDBRANCH   1  15
TORSDOF 4
ENDMDL
MODEL 3
REMARK VINA RESULT:      -7.3      1.356      6.378
REMARK SMILES COc1ccc2cc([C@H](C)C(=O)O)ccc2c1
REMARK SMILES IDX 9 1 10 2 8 3 3 4 17 5 4 6 16 7 5 8 6 9 15 10 7 11 14 12 2 13
REMARK SMILES IDX 1 14 11 15 12 16 13 17
REMARK H PARENT 13 18
ROOT
ATOM      1  C   UNL     1      20.039   1.147  11.117  1.00  0.00     0.126 C 
ATOM      2  C   UNL     1      19.509   2.130  10.053  1.00  0.00     0.025 C 
ENDROOT
BRANCH   1   3
ATOM      3  C   UNL     1      19.246   1.147  12.380  1.00  0.00    -0.033 A 
ATOM      4  C   UNL     1      17.589   0.663  17.138  1.00  0.00     0.119 A 
ATOM      5  C   UNL     1      17.020   1.141  15.958  1.00  0.00     0.055 A 
ATOM      6  C   UNL     1      18.896   0.186  17.137  1.00  0.00     0.047 A 
ATOM      7  C   UNL     1      17.753   1.148  14.760  1.00  0.00    -0.015 A 
ATOM      8  C   UNL     1      19.638   0.185  15.957  1.00  0.00     0.012 A 
ATOM      9  C   UNL     1      19.082   0.662  14.759  1.00  0.00    -0.018 A 
ATOM     10  C   UNL     1      17.196   1.626  13.562  1.00  0.00     0.009 A 
ATOM     11  C   UNL     1      19.815   0.669  13.561  1.00  0.00     0.013 A 
ATOM     12  C   UNL     1      17.938   1.625  12.381  1.00  0.00     0.005 A 
BRANCH   4  13
ATOM     13  O   UNL     1      16.865   0.662  18.290  1.00  0.00    -0.497 OA
ATOM     14  C   UNL     1      16.379  -0.597  18.751  1.00  0.00     0.278 C 
ENDBRANCH   4  13
ENDBRANCH   1   3
BRANCH   1  15
ATOM     15  C   UNL     1      20.152  -0.248  10.494  1.00  0.00     0.310 C 
ATOM     16  O   UNL     1      19.244  -1.069  10.466  1.00  0.00    -0.252 OA
BRANCH  15  17
ATOM     17  O   UNL     1      21.383  -0.502   9.975  1.00  0.00    -0.481 OA
ATOM     18  H   UNL     1      22.001  -0.849  10.652  1.00  0.00     0.296 HD
ENDBRANCH  15  17
ENDBRANCH   1  15
TORSDOF 4
ENDMDL
