MODEL 1
REMARK VINA RESULT:      -9.4      0.000      0.000
REMARK SMILES Cc1nc2n(c(=O)c1CCN1CCC(c3noc4cc(F)ccc34)CC1)CCC[C@@H]2O
REMARK SMILES IDX 10 1 11 2 14 3 13 4 25 5 12 6 26 7 15 8 20 9 19 10 22 11
REMARK SMILES IDX 18 12 23 13 17 14 24 15 16 16 21 17 9 18 8 19 6 20 2 21 7 22
REMARK SMILES IDX 5 23 3 24 27 25 4 26 28 27 30 28 29 29 1 30 31 31
REMARK H PARENT 31 32
ROOT
ATOM      1  C   UNL     1      20.253   0.089   8.354  1.00  0.00     0.089 C 
ENDROOT
BRANCH   1   2
ATOM      2  N   UNL     1      20.286   0.271   9.804  1.00  0.00    -0.303 NA
ATOM      3  C   UNL     1      19.111   0.757  12.448  1.00  0.00     0.045 C 
ATOM      4  C   UNL     1      19.574  -0.637  11.994  1.00  0.00     0.026 C 
ATOM      5  C   UNL     1      19.882   1.840  11.675  1.00  0.00     0.026 C 
ATOM      6  C   UNL     1      19.501  -0.777  10.472  1.00  0.00     0.085 C 
ATOM      7  C   UNL     1      19.798   1.610  10.165  1.00  0.00     0.085 C 
BRANCH   3   8
ATOM      8  C   UNL     1      19.191   0.940  13.947  1.00  0.00     0.095 A 
ATOM      9  C   UNL     1      17.098  -0.034  17.384  1.00  0.00     0.127 A 
ATOM     10  C   UNL     1      18.292   0.693  17.361  1.00  0.00     0.090 A 
ATOM     11  C   UNL     1      16.506  -0.498  16.204  1.00  0.00     0.040 A 
ATOM     12  C   UNL     1      18.845   0.920  16.104  1.00  0.00     0.170 A 
ATOM     13  C   UNL     1      17.091  -0.252  14.954  1.00  0.00     0.017 A 
ATOM     14  O   UNL     1      19.995   1.598  15.838  1.00  0.00    -0.356 OA
ATOM     15  C   UNL     1      18.290   0.477  14.916  1.00  0.00     0.045 A 
ATOM     16  N   UNL     1      20.217   1.611  14.466  1.00  0.00    -0.083 NA
ATOM     17  F   UNL     1      16.508  -0.291  18.560  1.00  0.00    -0.207 F 
ENDBRANCH   3   8
ENDBRANCH   1   2
BRANCH   1  18
ATOM     18  C   UNL     1      19.101  -0.831   7.973  1.00  0.00     0.059 C 
BRANCH  18  19
ATOM     19  C   UNL     1      18.908  -0.860   6.484  1.00  0.00     0.040 A 
ATOM     20  C   UNL     1      18.414   0.410   5.866  1.00  0.00     0.257 A 
ATOM     21  C   UNL     1      19.153  -1.903   5.667  1.00  0.00     0.048 A 
ATOM     22  O   UNL     1      18.109   1.364   6.580  1.00  0.00    -0.269 OA
ATOM     23  N   UNL     1      18.322   0.395   4.472  1.00  0.00    -0.294 N 
ATOM     24  N   UNL     1      19.000  -1.866   4.303  1.00  0.00    -0.237 NA
ATOM     25  C   UNL     1      17.803   1.606   3.832  1.00  0.00     0.127 C 
ATOM     26  C   UNL     1      18.596  -0.760   3.758  1.00  0.00     0.140 A 
ATOM     27  C   UNL     1      18.110   1.714   2.350  1.00  0.00     0.025 C 
ATOM     28  C   UNL     1      18.490  -0.727   2.237  1.00  0.00     0.181 C 
ATOM     29  C   UNL     1      17.685   0.428   1.674  1.00  0.00     0.042 C 
ATOM     30  C   UNL     1      19.609  -3.247   6.168  1.00  0.00     0.067 C 
BRANCH  28  31
ATOM     31  O   UNL     1      17.904  -1.947   1.804  1.00  0.00    -0.385 OA
ATOM     32  H   UNL     1      17.842  -1.923   0.833  1.00  0.00     0.211 HD
ENDBRANCH  28  31
ENDBRANCH  18  19
ENDBRANCH   1  18
TORSDOF 5
ENDMDL
MODEL 2
REMARK VINA RESULT:      -9.0     11.383     15.908
REMARK SMILES Cc1nc2n(c(=O)c1CCN1CCC(c3noc4cc(F)ccc34)CC1)CCC[C@@H]2O
REMARK SMILES IDX 10 1 11 2 14 3 13 4 25 5 12 6 26 7 15 8 20 9 19 10 22 11
REMARK SMILES IDX 18 12 23 13 17 14 24 15 16 16 21 17 9 18 8 19 6 20 2 21 7 22
REMARK SMILES IDX 5 23 3 24 27 25 4 26 28 27 30 28 29 29 1 30 31 31
REMARK H PARENT 31 32
ROOT
ATOM      1  C   UNL     1      23.171  -6.920  16.687  1.00  0.00     0.089 C 
ENDROOT
BRANCH   1   2
ATOM      2  N   UNL     1      23.097  -7.975  15.676  1.00  0.00    -0.303 NA
ATOM      3  C   UNL     1      21.740  -9.992  14.035  1.00  0.00     0.045 C 
ATOM      4  C   UNL     1      22.180  -8.631  13.473  1.00  0.00     0.026 C 
ATOM      5  C   UNL     1      22.612 -10.363  15.246  1.00  0.00     0.026 C 
ATOM      6  C   UNL     1      22.221  -7.564  14.569  1.00  0.00     0.085 C 
ATOM      7  C   UNL     1      22.638  -9.234  16.278  1.00  0.00     0.085 C 
BRANCH   3   8
ATOM      8  C   UNL     1      21.709 -11.077  12.983  1.00  0.00     0.095 A 
ATOM      9  C   UNL     1      19.550 -12.197   9.633  1.00  0.00     0.127 A 
ATOM     10  C   UNL     1      20.649 -12.898  10.139  1.00  0.00     0.090 A 
ATOM     11  C   UNL     1      19.087 -11.028  10.245  1.00  0.00     0.040 A 
ATOM     12  C   UNL     1      21.243 -12.361  11.278  1.00  0.00     0.170 A 
ATOM     13  C   UNL     1      19.711 -10.514  11.391  1.00  0.00     0.017 A 
ATOM     14  O   UNL     1      22.318 -12.867  11.942  1.00  0.00    -0.356 OA
ATOM     15  C   UNL     1      20.815 -11.208  11.911  1.00  0.00     0.045 A 
ATOM     16  N   UNL     1      22.616 -12.052  13.027  1.00  0.00    -0.083 NA
ATOM     17  F   UNL     1      18.927 -12.655   8.538  1.00  0.00    -0.207 F 
ENDBRANCH   3   8
ENDBRANCH   1   2
BRANCH   1  18
ATOM     18  C   UNL     1      22.971  -7.517  18.073  1.00  0.00     0.059 C 
BRANCH  18  19
ATOM     19  C   UNL     1      24.076  -7.099  19.000  1.00  0.00     0.040 A 
ATOM     20  C   UNL     1      25.087  -8.152  19.326  1.00  0.00     0.257 A 
ATOM     21  C   UNL     1      24.245  -5.877  19.541  1.00  0.00     0.048 A 
ATOM     22  O   UNL     1      24.935  -9.301  18.914  1.00  0.00    -0.269 OA
ATOM     23  N   UNL     1      26.155  -7.724  20.120  1.00  0.00    -0.294 N 
ATOM     24  N   UNL     1      25.298  -5.531  20.352  1.00  0.00    -0.237 NA
ATOM     25  C   UNL     1      27.145  -8.737  20.495  1.00  0.00     0.127 C 
ATOM     26  C   UNL     1      26.191  -6.432  20.619  1.00  0.00     0.140 A 
ATOM     27  C   UNL     1      28.468  -8.172  20.976  1.00  0.00     0.025 C 
ATOM     28  C   UNL     1      27.380  -6.008  21.474  1.00  0.00     0.181 C 
ATOM     29  C   UNL     1      28.193  -7.148  22.056  1.00  0.00     0.042 C 
ATOM     30  C   UNL     1      23.275  -4.745  19.329  1.00  0.00     0.067 C 
BRANCH  28  31
ATOM     31  O   UNL     1      26.899  -5.199  22.538  1.00  0.00    -0.385 OA
ATOM     32  H   UNL     1      27.614  -4.596  22.805  1.00  0.00     0.211 HD
ENDBRANCH  28  31
ENDBRANCH  18  19
ENDBRANCH   1  18
TORSDOF 5
ENDMDL
MODEL 3
REMARK VINA RESULT:      -8.9      4.075     10.626
REMARK SMILES Cc1nc2n(c(=O)c1CCN1CCC(c3noc4cc(F)ccc34)CC1)CCC[C@@H]2O
REMARK SMILES IDX 10 1 11 2 14 3 13 4 25 5 12 6 26 7 15 8 20 9 19 10 22 11
REMARK SMILES IDX 18 12 23 13 17 14 24 15 16 16 21 17 9 18 8 19 6 20 2 21 7 22
REMARK SMILES IDX 5 23 3 24 27 25 4 26 28 27 30 28 29 29 1 30 31 31
REMARK H PARENT 31 32
ROOT
ATOM      1  C   UNL     1      20.127   0.180   8.398  1.00  0.00     0.089 C 
ENDROOT
BRANCH   1   2
ATOM      2  N   UNL     1      19.012  -0.159   7.514  1.00  0.00    -0.303 NA
ATOM      3  C   UNL     1      17.786  -0.978   4.978  1.00  0.00     0.045 C 
ATOM      4  C   UNL     1      17.939  -1.938   6.169  1.00  0.00     0.026 C 
ATOM      5  C   UNL     1      17.752   0.475   5.481  1.00  0.00     0.026 C 
ATOM      6  C   UNL     1      19.130  -1.548   7.047  1.00  0.00     0.085 C 
ATOM      7  C   UNL     1      18.949   0.778   6.384  1.00  0.00     0.085 C 
BRANCH   3   8
ATOM      8  C   UNL     1      16.604  -1.320   4.100  1.00  0.00     0.095 A 
ATOM      9  C   UNL     1      14.777  -0.073   0.601  1.00  0.00     0.127 A 
ATOM     10  C   UNL     1      14.332  -1.135   1.393  1.00  0.00     0.090 A 
ATOM     11  C   UNL     1      15.910   0.670   0.949  1.00  0.00     0.040 A 
ATOM     12  C   UNL     1      15.082  -1.401   2.535  1.00  0.00     0.170 A 
ATOM     13  C   UNL     1      16.643   0.374   2.107  1.00  0.00     0.017 A 
ATOM     14  O   UNL     1      14.841  -2.381   3.449  1.00  0.00    -0.356 OA
ATOM     15  C   UNL     1      16.208  -0.691   2.911  1.00  0.00     0.045 A 
ATOM     16  N   UNL     1      15.808  -2.331   4.445  1.00  0.00    -0.083 NA
ATOM     17  F   UNL     1      14.103   0.242  -0.515  1.00  0.00    -0.207 F 
ENDBRANCH   3   8
ENDBRANCH   1   2
BRANCH   1  18
ATOM     18  C   UNL     1      19.694   1.246   9.394  1.00  0.00     0.059 C 
BRANCH  18  19
ATOM     19  C   UNL     1      19.629   0.684  10.785  1.00  0.00     0.040 A 
ATOM     20  C   UNL     1      18.895   1.513  11.790  1.00  0.00     0.257 A 
ATOM     21  C   UNL     1      20.149  -0.489  11.198  1.00  0.00     0.048 A 
ATOM     22  O   UNL     1      18.466   2.623  11.478  1.00  0.00    -0.269 OA
ATOM     23  N   UNL     1      18.769   0.937  13.058  1.00  0.00    -0.294 N 
ATOM     24  N   UNL     1      20.027  -0.980  12.474  1.00  0.00    -0.237 NA
ATOM     25  C   UNL     1      18.092   1.736  14.082  1.00  0.00     0.127 C 
ATOM     26  C   UNL     1      19.370  -0.278  13.344  1.00  0.00     0.140 A 
ATOM     27  C   UNL     1      17.607   0.941  15.279  1.00  0.00     0.025 C 
ATOM     28  C   UNL     1      19.199  -0.872  14.738  1.00  0.00     0.181 C 
ATOM     29  C   UNL     1      18.757   0.110  15.805  1.00  0.00     0.042 C 
ATOM     30  C   UNL     1      20.948  -1.393  10.297  1.00  0.00     0.067 C 
BRANCH  28  31
ATOM     31  O   UNL     1      20.436  -1.449  15.132  1.00  0.00    -0.385 OA
ATOM     32  H   UNL     1      20.734  -1.000  15.942  1.00  0.00     0.211 HD
ENDBRANCH  28  31
ENDBRANCH  18  19
ENDBRANCH   1  18
TORSDOF 5
ENDMDL
