MODEL 1
REMARK VINA RESULT:      -5.8      0.000      0.000
REMARK SMILES Cc1nc2n(c(=O)c1CCN1CCC(c3noc4cc(F)ccc34)CC1)CCC[C@@H]2O
REMARK SMILES IDX 10 1 11 2 14 3 13 4 25 5 12 6 26 7 15 8 20 9 19 10 22 11
REMARK SMILES IDX 18 12 23 13 17 14 24 15 16 16 21 17 9 18 8 19 6 20 2 21 7 22
REMARK SMILES IDX 5 23 3 24 27 25 4 26 28 27 30 28 29 29 1 30 31 31
REMARK H PARENT 31 32
ROOT
ATOM      1  C   UNL     1     -28.662   9.805 -52.153  1.00  0.00     0.089 C 
ENDROOT
BRANCH   1   2
ATOM      2  N   UNL     1     -27.973   8.582 -52.562  1.00  0.00    -0.303 NA
ATOM      3  C   UNL     1     -27.819   5.805 -53.497  1.00  0.00     0.045 C 
ATOM      4  C   UNL     1     -27.544   7.003 -54.420  1.00  0.00     0.026 C 
ATOM      5  C   UNL     1     -27.551   6.201 -52.035  1.00  0.00     0.026 C 
ATOM      6  C   UNL     1     -28.304   8.248 -53.955  1.00  0.00     0.085 C 
ATOM      7  C   UNL     1     -28.310   7.475 -51.657  1.00  0.00     0.085 C 
BRANCH   3   8
ATOM      8  C   UNL     1     -27.067   4.562 -53.912  1.00  0.00     0.095 A 
ATOM      9  C   UNL     1     -23.220   3.329 -54.818  1.00  0.00     0.127 A 
ATOM     10  C   UNL     1     -24.344   2.498 -54.835  1.00  0.00     0.090 A 
ATOM     11  C   UNL     1     -23.321   4.683 -54.483  1.00  0.00     0.040 A 
ATOM     12  C   UNL     1     -25.553   3.100 -54.501  1.00  0.00     0.170 A 
ATOM     13  C   UNL     1     -24.556   5.257 -54.150  1.00  0.00     0.017 A 
ATOM     14  O   UNL     1     -26.771   2.493 -54.449  1.00  0.00    -0.356 OA
ATOM     15  C   UNL     1     -25.693   4.435 -54.163  1.00  0.00     0.045 A 
ATOM     16  N   UNL     1     -27.734   3.421 -54.075  1.00  0.00    -0.083 NA
ATOM     17  F   UNL     1     -22.020   2.817 -55.130  1.00  0.00    -0.207 F 
ENDBRANCH   3   8
ENDBRANCH   1   2
BRANCH   1  18
ATOM     18  C   UNL     1     -27.658  10.801 -51.590  1.00  0.00     0.059 C 
BRANCH  18  19
ATOM     19  C   UNL     1     -27.707  10.820 -50.089  1.00  0.00     0.040 A 
ATOM     20  C   UNL     1     -28.739  11.715 -49.481  1.00  0.00     0.257 A 
ATOM     21  C   UNL     1     -26.930  10.101 -49.255  1.00  0.00     0.048 A 
ATOM     22  O   UNL     1     -29.422  12.445 -50.199  1.00  0.00    -0.269 OA
ATOM     23  N   UNL     1     -28.831  11.657 -48.088  1.00  0.00    -0.294 N 
ATOM     24  N   UNL     1     -27.042  10.121 -47.887  1.00  0.00    -0.237 NA
ATOM     25  C   UNL     1     -29.802  12.550 -47.452  1.00  0.00     0.127 C 
ATOM     26  C   UNL     1     -27.951  10.877 -47.355  1.00  0.00     0.140 A 
ATOM     27  C   UNL     1     -30.169  12.168 -46.031  1.00  0.00     0.025 C 
ATOM     28  C   UNL     1     -28.094  10.837 -45.837  1.00  0.00     0.181 C 
ATOM     29  C   UNL     1     -28.895  11.976 -45.237  1.00  0.00     0.042 C 
ATOM     30  C   UNL     1     -25.826   9.198 -49.738  1.00  0.00     0.067 C 
BRANCH  28  31
ATOM     31  O   UNL     1     -26.793  10.843 -45.266  1.00  0.00    -0.385 OA
ATOM     32  H   UNL     1     -26.840  11.310 -44.413  1.00  0.00     0.211 HD
ENDBRANCH  28  31
ENDBRANCH  18  19
ENDBRANCH   1  18
TORSDOF 5
ENDMDL
MODEL 2
REMARK VINA RESULT:      -5.7      4.072      9.283
REMARK SMILES Cc1nc2n(c(=O)c1CCN1CCC(c3noc4cc(F)ccc34)CC1)CCC[C@@H]2O
REMARK SMILES IDX 10 1 11 2 14 3 13 4 25 5 12 6 26 7 15 8 20 9 19 10 22 11
REMARK SMILES IDX 18 12 23 13 17 14 24 15 16 16 21 17 9 18 8 19 6 20 2 21 7 22
REMARK SMILES IDX 5 23 3 24 27 25 4 26 28 27 30 28 29 29 1 30 31 31
REMARK H PARENT 31 32
ROOT
ATOM      1  C   UNL     1     -27.355   7.774 -51.808  1.00  0.00     0.089 C 
ENDROOT
BRANCH   1   2
ATOM      2  N   UNL     1     -26.555   8.632 -50.934  1.00  0.00    -0.303 NA
ATOM      3  C   UNL     1     -24.100   9.969 -50.048  1.00  0.00     0.045 C 
ATOM      4  C   UNL     1     -25.228  10.715 -50.777  1.00  0.00     0.026 C 
ATOM      5  C   UNL     1     -24.668   8.729 -49.337  1.00  0.00     0.026 C 
ATOM      6  C   UNL     1     -26.018   9.774 -51.688  1.00  0.00     0.085 C 
ATOM      7  C   UNL     1     -25.478   7.860 -50.301  1.00  0.00     0.085 C 
BRANCH   3   8
ATOM      8  C   UNL     1     -23.311  10.864 -49.119  1.00  0.00     0.095 A 
ATOM      9  C   UNL     1     -19.458  11.350 -47.684  1.00  0.00     0.127 A 
ATOM     10  C   UNL     1     -20.543  12.160 -47.336  1.00  0.00     0.090 A 
ATOM     11  C   UNL     1     -19.605  10.280 -48.573  1.00  0.00     0.040 A 
ATOM     12  C   UNL     1     -21.761  11.836 -47.924  1.00  0.00     0.170 A 
ATOM     13  C   UNL     1     -20.848   9.982 -49.149  1.00  0.00     0.017 A 
ATOM     14  O   UNL     1     -22.946  12.480 -47.736  1.00  0.00    -0.356 OA
ATOM     15  C   UNL     1     -21.946  10.787 -48.808  1.00  0.00     0.045 A 
ATOM     16  N   UNL     1     -23.933  11.863 -48.496  1.00  0.00    -0.083 NA
ATOM     17  F   UNL     1     -18.253  11.603 -47.155  1.00  0.00    -0.207 F 
ENDBRANCH   3   8
ENDBRANCH   1   2
BRANCH   1  18
ATOM     18  C   UNL     1     -26.841   7.866 -53.238  1.00  0.00     0.059 C 
BRANCH  18  19
ATOM     19  C   UNL     1     -26.109   6.614 -53.625  1.00  0.00     0.040 A 
ATOM     20  C   UNL     1     -26.960   5.404 -53.848  1.00  0.00     0.257 A 
ATOM     21  C   UNL     1     -24.780   6.488 -53.805  1.00  0.00     0.048 A 
ATOM     22  O   UNL     1     -28.170   5.452 -53.626  1.00  0.00    -0.269 OA
ATOM     23  N   UNL     1     -26.276   4.269 -54.291  1.00  0.00    -0.294 N 
ATOM     24  N   UNL     1     -24.162   5.328 -54.202  1.00  0.00    -0.237 NA
ATOM     25  C   UNL     1     -27.068   3.052 -54.481  1.00  0.00     0.127 C 
ATOM     26  C   UNL     1     -24.897   4.282 -54.420  1.00  0.00     0.140 A 
ATOM     27  C   UNL     1     -26.402   1.997 -55.343  1.00  0.00     0.025 C 
ATOM     28  C   UNL     1     -24.193   3.023 -54.915  1.00  0.00     0.181 C 
ATOM     29  C   UNL     1     -25.007   1.748 -54.810  1.00  0.00     0.042 C 
ATOM     30  C   UNL     1     -23.811   7.616 -53.570  1.00  0.00     0.067 C 
BRANCH  28  31
ATOM     31  O   UNL     1     -22.993   2.861 -54.173  1.00  0.00    -0.385 OA
ATOM     32  H   UNL     1     -23.093   2.077 -53.605  1.00  0.00     0.211 HD
ENDBRANCH  28  31
ENDBRANCH  18  19
ENDBRANCH   1  18
TORSDOF 5
ENDMDL
MODEL 3
REMARK VINA RESULT:      -5.6      5.006     11.885
REMARK SMILES Cc1nc2n(c(=O)c1CCN1CCC(c3noc4cc(F)ccc34)CC1)CCC[C@@H]2O
REMARK SMILES IDX 10 1 11 2 14 3 13 4 25 5 12 6 26 7 15 8 20 9 19 10 22 11
REMARK SMILES IDX 18 12 23 13 17 14 24 15 16 16 21 17 9 18 8 19 6 20 2 21 7 22
REMARK SMILES IDX 5 23 3 24 27 25 4 26 28 27 30 28 29 29 1 30 31 31
REMARK H PARENT 31 32
ROOT
ATOM      1  C   UNL     1     -23.892   2.274 -56.393  1.00  0.00     0.089 C 
ENDROOT
BRANCH   1   2
ATOM      2  N   UNL     1     -24.913   3.128 -55.787  1.00  0.00    -0.303 NA
ATOM      3  C   UNL     1     -25.992   4.944 -53.752  1.00  0.00     0.045 C 
ATOM      4  C   UNL     1     -25.519   5.436 -55.129  1.00  0.00     0.026 C 
ATOM      5  C   UNL     1     -26.401   3.464 -53.838  1.00  0.00     0.026 C 
ATOM      6  C   UNL     1     -24.440   4.517 -55.706  1.00  0.00     0.085 C 
ATOM      7  C   UNL     1     -25.289   2.617 -54.462  1.00  0.00     0.085 C 
BRANCH   3   8
ATOM      8  C   UNL     1     -27.076   5.816 -53.160  1.00  0.00     0.095 A 
ATOM      9  C   UNL     1     -27.509   9.282 -50.938  1.00  0.00     0.127 A 
ATOM     10  C   UNL     1     -28.570   8.500 -51.403  1.00  0.00     0.090 A 
ATOM     11  C   UNL     1     -26.179   8.934 -51.200  1.00  0.00     0.040 A 
ATOM     12  C   UNL     1     -28.221   7.369 -52.134  1.00  0.00     0.170 A 
ATOM     13  C   UNL     1     -25.863   7.787 -51.941  1.00  0.00     0.017 A 
ATOM     14  O   UNL     1     -29.078   6.465 -52.684  1.00  0.00    -0.356 OA
ATOM     15  C   UNL     1     -26.919   6.993 -52.414  1.00  0.00     0.045 A 
ATOM     16  N   UNL     1     -28.352   5.477 -53.337  1.00  0.00    -0.083 NA
ATOM     17  F   UNL     1     -27.770  10.388 -50.226  1.00  0.00    -0.207 F 
ENDBRANCH   3   8
ENDBRANCH   1   2
BRANCH   1  18
ATOM     18  C   UNL     1     -22.990   3.107 -57.294  1.00  0.00     0.059 C 
BRANCH  18  19
ATOM     19  C   UNL     1     -21.596   2.549 -57.318  1.00  0.00     0.040 A 
ATOM     20  C   UNL     1     -21.259   1.685 -58.492  1.00  0.00     0.257 A 
ATOM     21  C   UNL     1     -20.632   2.766 -56.402  1.00  0.00     0.048 A 
ATOM     22  O   UNL     1     -22.127   1.399 -59.316  1.00  0.00    -0.269 OA
ATOM     23  N   UNL     1     -19.934   1.243 -58.545  1.00  0.00    -0.294 N 
ATOM     24  N   UNL     1     -19.357   2.266 -56.490  1.00  0.00    -0.237 NA
ATOM     25  C   UNL     1     -19.576   0.361 -59.658  1.00  0.00     0.127 C 
ATOM     26  C   UNL     1     -19.051   1.537 -57.518  1.00  0.00     0.140 A 
ATOM     27  C   UNL     1     -18.085   0.254 -59.918  1.00  0.00     0.025 C 
ATOM     28  C   UNL     1     -17.613   1.041 -57.622  1.00  0.00     0.181 C 
ATOM     29  C   UNL     1     -17.390  -0.082 -58.617  1.00  0.00     0.042 C 
ATOM     30  C   UNL     1     -20.857   3.578 -55.154  1.00  0.00     0.067 C 
BRANCH  28  31
ATOM     31  O   UNL     1     -17.198   0.603 -56.337  1.00  0.00    -0.385 OA
ATOM     32  H   UNL     1     -16.264   0.851 -56.220  1.00  0.00     0.211 HD
ENDBRANCH  28  31
ENDBRANCH  18  19
ENDBRANCH   1  18
TORSDOF 5
ENDMDL
