MODEL 1
REMARK VINA RESULT:      -8.7      0.000      0.000
REMARK SMILES Cc1[nH]c2ccccc2c1CCNCc1ccc(/C=C/C(=O)NO)cc1
REMARK SMILES IDX 14 1 15 2 18 3 17 4 25 5 16 6 26 7 19 8 20 9 21 10 22 11
REMARK SMILES IDX 23 12 24 14 13 16 12 18 11 19 10 20 9 21 2 22 4 23 8 24 3 25
REMARK SMILES IDX 5 26 7 27 6 28 1 29
REMARK H PARENT 23 13 24 15 13 17 3 30
ROOT
ATOM      1  C   UNL     1      20.010  -0.268   8.596  1.00  0.00     0.116 C 
ENDROOT
BRANCH   1   2
ATOM      2  C   UNL     1      19.210  -0.447   7.333  1.00  0.00    -0.034 A 
ATOM      3  C   UNL     1      17.736  -0.779   5.005  1.00  0.00    -0.025 A 
ATOM      4  C   UNL     1      18.029   0.503   5.468  1.00  0.00     0.008 A 
ATOM      5  C   UNL     1      18.184  -1.896   5.711  1.00  0.00     0.008 A 
ATOM      6  C   UNL     1      18.770   0.670   6.638  1.00  0.00     0.005 A 
ATOM      7  C   UNL     1      18.925  -1.729   6.881  1.00  0.00     0.005 A 
BRANCH   3   8
ATOM      8  C   UNL     1      16.964  -0.953   3.784  1.00  0.00     0.014 C 
ATOM      9  C   UNL     1      15.998  -1.882   3.597  1.00  0.00     0.074 C 
BRANCH   9  10
ATOM     10  C   UNL     1      15.264  -1.962   2.305  1.00  0.00     0.267 C 
ATOM     11  O   UNL     1      15.669  -2.616   1.350  1.00  0.00    -0.268 OA
ATOM     12  N   UNL     1      14.105  -1.229   2.335  1.00  0.00    -0.234 N 
ATOM     13  H   UNL     1      13.720  -0.726   3.127  1.00  0.00     0.199 HD
BRANCH  12  14
ATOM     14  O   UNL     1      13.342  -1.251   1.159  1.00  0.00    -0.288 OA
ATOM     15  H   UNL     1      12.462  -1.439   1.526  1.00  0.00     0.246 HD
ENDBRANCH  12  14
ENDBRANCH   9  10
ENDBRANCH   3   8
ENDBRANCH   1   2
BRANCH   1  16
ATOM     16  N   UNL     1      19.907  -1.426   9.472  1.00  0.00    -0.312 NA
ATOM     17  H   UNL     1      19.557  -2.226   8.946  1.00  0.00     0.123 HD
BRANCH  16  18
ATOM     18  C   UNL     1      19.007  -1.156  10.587  1.00  0.00     0.086 C 
BRANCH  18  19
ATOM     19  C   UNL     1      19.773  -0.750  11.859  1.00  0.00     0.053 C 
BRANCH  19  20
ATOM     20  C   UNL     1      18.992   0.139  12.744  1.00  0.00    -0.018 A 
ATOM     21  C   UNL     1      18.301  -0.248  13.926  1.00  0.00     0.003 A 
ATOM     22  C   UNL     1      18.803   1.491  12.572  1.00  0.00     0.016 A 
ATOM     23  C   UNL     1      17.702   0.901  14.445  1.00  0.00     0.046 A 
ATOM     24  C   UNL     1      18.127  -1.471  14.606  1.00  0.00     0.010 A 
ATOM     25  N   UNL     1      18.023   1.941  13.603  1.00  0.00    -0.358 N 
ATOM     26  C   UNL     1      16.934   0.890  15.616  1.00  0.00     0.026 A 
ATOM     27  C   UNL     1      17.362  -1.497  15.777  1.00  0.00     0.001 A 
ATOM     28  C   UNL     1      16.776  -0.334  16.273  1.00  0.00     0.002 A 
ATOM     29  C   UNL     1      19.285   2.411  11.524  1.00  0.00     0.064 C 
ATOM     30  H   UNL     1      17.724   2.898  13.732  1.00  0.00     0.166 HD
ENDBRANCH  19  20
ENDBRANCH  18  19
ENDBRANCH  16  18
ENDBRANCH   1  16
TORSDOF 8
ENDMDL
MODEL 2
REMARK VINA RESULT:      -8.4      5.077     10.243
REMARK SMILES Cc1[nH]c2ccccc2c1CCNCc1ccc(/C=C/C(=O)NO)cc1
REMARK SMILES IDX 14 1 15 2 18 3 17 4 25 5 16 6 26 7 19 8 20 9 21 10 22 11
REMARK SMILES IDX 23 12 24 14 13 16 12 18 11 19 10 20 9 21 2 22 4 23 8 24 3 25
REMARK SMILES IDX 5 26 7 27 6 28 1 29
REMARK H PARENT 23 13 24 15 13 17 3 30
ROOT
ATOM      1  C   UNL     1      20.088  -0.186   8.885  1.00  0.00     0.116 C 
ENDROOT
BRANCH   1   2
ATOM      2  C   UNL     1      19.794   0.146  10.324  1.00  0.00    -0.034 A 
ATOM      3  C   UNL     1      19.251   0.759  12.976  1.00  0.00    -0.025 A 
ATOM      4  C   UNL     1      19.364  -0.573  12.576  1.00  0.00     0.008 A 
ATOM      5  C   UNL     1      19.411   1.783  12.043  1.00  0.00     0.008 A 
ATOM      6  C   UNL     1      19.637  -0.881  11.244  1.00  0.00     0.005 A 
ATOM      7  C   UNL     1      19.684   1.475  10.709  1.00  0.00     0.005 A 
BRANCH   3   8
ATOM      8  C   UNL     1      18.966   1.080  14.366  1.00  0.00     0.014 C 
ATOM      9  C   UNL     1      18.967   0.194  15.387  1.00  0.00     0.074 C 
BRANCH   9  10
ATOM     10  C   UNL     1      18.671   0.639  16.777  1.00  0.00     0.267 C 
ATOM     11  O   UNL     1      19.415   1.380  17.410  1.00  0.00    -0.268 OA
ATOM     12  N   UNL     1      17.483   0.125  17.231  1.00  0.00    -0.234 N 
ATOM     13  H   UNL     1      16.824  -0.444  16.709  1.00  0.00     0.199 HD
BRANCH  12  14
ATOM     14  O   UNL     1      17.119   0.496  18.532  1.00  0.00    -0.288 OA
ATOM     15  H   UNL     1      17.915   0.227  19.020  1.00  0.00     0.246 HD
ENDBRANCH  12  14
ENDBRANCH   9  10
ENDBRANCH   3   8
ENDBRANCH   1   2
BRANCH   1  16
ATOM     16  N   UNL     1      19.398  -1.394   8.455  1.00  0.00    -0.312 NA
ATOM     17  H   UNL     1      19.997  -2.206   8.604  1.00  0.00     0.123 HD
BRANCH  16  18
ATOM     18  C   UNL     1      19.041  -1.314   7.044  1.00  0.00     0.086 C 
BRANCH  18  19
ATOM     19  C   UNL     1      18.677   0.121   6.624  1.00  0.00     0.053 C 
BRANCH  19  20
ATOM     20  C   UNL     1      18.285   0.225   5.203  1.00  0.00    -0.018 A 
ATOM     21  C   UNL     1      17.153  -0.388   4.596  1.00  0.00     0.003 A 
ATOM     22  C   UNL     1      18.951   0.932   4.228  1.00  0.00     0.016 A 
ATOM     23  C   UNL     1      17.166  -0.028   3.247  1.00  0.00     0.046 A 
ATOM     24  C   UNL     1      16.115  -1.217   5.067  1.00  0.00     0.010 A 
ATOM     25  N   UNL     1      18.269   0.773   3.052  1.00  0.00    -0.358 N 
ATOM     26  C   UNL     1      16.190  -0.457   2.341  1.00  0.00     0.026 A 
ATOM     27  C   UNL     1      15.132  -1.654   4.171  1.00  0.00     0.001 A 
ATOM     28  C   UNL     1      15.170  -1.278   2.831  1.00  0.00     0.002 A 
ATOM     29  C   UNL     1      20.178   1.749   4.292  1.00  0.00     0.064 C 
ATOM     30  H   UNL     1      18.532   1.182   2.166  1.00  0.00     0.166 HD
ENDBRANCH  19  20
ENDBRANCH  18  19
ENDBRANCH  16  18
ENDBRANCH   1  16
TORSDOF 8
ENDMDL
MODEL 3
REMARK VINA RESULT:      -8.4      5.255     10.237
REMARK SMILES Cc1[nH]c2ccccc2c1CCNCc1ccc(/C=C/C(=O)NO)cc1
REMARK SMILES IDX 14 1 15 2 18 3 17 4 25 5 16 6 26 7 19 8 20 9 21 10 22 11
REMARK SMILES IDX 23 12 24 14 13 16 12 18 11 19 10 20 9 21 2 22 4 23 8 24 3 25
REMARK SMILES IDX 5 26 7 27 6 28 1 29
REMARK H PARENT 23 13 24 15 13 17 3 30
ROOT
ATOM      1  C   UNL     1      19.966   1.872  10.043  1.00  0.00     0.116 C 
ENDROOT
BRANCH   1   2
ATOM      2  C   UNL     1      19.482   1.332  11.363  1.00  0.00    -0.034 A 
ATOM      3  C   UNL     1      18.591   0.337  13.796  1.00  0.00    -0.025 A 
ATOM      4  C   UNL     1      18.239   1.627  13.399  1.00  0.00     0.008 A 
ATOM      5  C   UNL     1      19.390  -0.454  12.970  1.00  0.00     0.008 A 
ATOM      6  C   UNL     1      18.687   2.127  12.177  1.00  0.00     0.005 A 
ATOM      7  C   UNL     1      19.838   0.046  11.747  1.00  0.00     0.005 A 
BRANCH   3   8
ATOM      8  C   UNL     1      18.123  -0.185  15.071  1.00  0.00     0.014 C 
ATOM      9  C   UNL     1      17.901   0.553  16.182  1.00  0.00     0.074 C 
BRANCH   9  10
ATOM     10  C   UNL     1      17.412  -0.089  17.432  1.00  0.00     0.267 C 
ATOM     11  O   UNL     1      16.812   0.530  18.305  1.00  0.00    -0.268 OA
ATOM     12  N   UNL     1      17.710  -1.427  17.466  1.00  0.00    -0.234 N 
ATOM     13  H   UNL     1      18.154  -1.972  16.736  1.00  0.00     0.199 HD
BRANCH  12  14
ATOM     14  O   UNL     1      17.280  -2.116  18.609  1.00  0.00    -0.288 OA
ATOM     15  H   UNL     1      18.137  -2.363  18.996  1.00  0.00     0.246 HD
ENDBRANCH  12  14
ENDBRANCH   9  10
ENDBRANCH   3   8
ENDBRANCH   1   2
BRANCH   1  16
ATOM     16  N   UNL     1      19.244   1.290   8.921  1.00  0.00    -0.312 NA
ATOM     17  H   UNL     1      18.343   0.933   9.239  1.00  0.00     0.123 HD
BRANCH  16  18
ATOM     18  C   UNL     1      20.006   0.200   8.322  1.00  0.00     0.086 C 
BRANCH  18  19
ATOM     19  C   UNL     1      19.101  -0.970   7.899  1.00  0.00     0.053 C 
BRANCH  19  20
ATOM     20  C   UNL     1      19.026  -1.140   6.433  1.00  0.00    -0.018 A 
ATOM     21  C   UNL     1      18.561  -0.174   5.497  1.00  0.00     0.003 A 
ATOM     22  C   UNL     1      19.392  -2.264   5.728  1.00  0.00     0.016 A 
ATOM     23  C   UNL     1      18.662  -0.750   4.229  1.00  0.00     0.046 A 
ATOM     24  C   UNL     1      18.064   1.140   5.608  1.00  0.00     0.010 A 
ATOM     25  N   UNL     1      19.168  -2.019   4.400  1.00  0.00    -0.358 N 
ATOM     26  C   UNL     1      18.288  -0.076   3.061  1.00  0.00     0.026 A 
ATOM     27  C   UNL     1      17.687   1.826   4.447  1.00  0.00     0.001 A 
ATOM     28  C   UNL     1      17.798   1.226   3.195  1.00  0.00     0.002 A 
ATOM     29  C   UNL     1      19.935  -3.559   6.183  1.00  0.00     0.064 C 
ATOM     30  H   UNL     1      19.348  -2.672   3.649  1.00  0.00     0.166 HD
ENDBRANCH  19  20
ENDBRANCH  18  19
ENDBRANCH  16  18
ENDBRANCH   1  16
TORSDOF 8
ENDMDL
