MODEL 1
REMARK VINA RESULT:      -4.8      0.000      0.000
REMARK SMILES Cc1[nH]c2ccccc2c1CCNCc1ccc(/C=C/C(=O)NO)cc1
REMARK SMILES IDX 14 1 15 2 18 3 17 4 25 5 16 6 26 7 19 8 20 9 21 10 22 11
REMARK SMILES IDX 23 12 24 14 13 16 12 18 11 19 10 20 9 21 2 22 4 23 8 24 3 25
REMARK SMILES IDX 5 26 7 27 6 28 1 29
REMARK H PARENT 23 13 24 15 13 17 3 30
ROOT
ATOM      1  C   UNL     1     -25.979   0.955 -56.102  1.00  0.00     0.116 C 
ENDROOT
BRANCH   1   2
ATOM      2  C   UNL     1     -26.468   2.186 -55.385  1.00  0.00    -0.034 A 
ATOM      3  C   UNL     1     -27.371   4.453 -54.064  1.00  0.00    -0.025 A 
ATOM      4  C   UNL     1     -26.574   3.525 -53.393  1.00  0.00     0.008 A 
ATOM      5  C   UNL     1     -27.713   4.243 -55.400  1.00  0.00     0.008 A 
ATOM      6  C   UNL     1     -26.121   2.386 -54.056  1.00  0.00     0.005 A 
ATOM      7  C   UNL     1     -27.259   3.102 -56.064  1.00  0.00     0.005 A 
BRANCH   3   8
ATOM      8  C   UNL     1     -27.843   5.642 -53.371  1.00  0.00     0.014 C 
ATOM      9  C   UNL     1     -27.122   6.370 -52.489  1.00  0.00     0.074 C 
BRANCH   9  10
ATOM     10  C   UNL     1     -27.707   7.579 -51.846  1.00  0.00     0.267 C 
ATOM     11  O   UNL     1     -27.220   8.698 -51.970  1.00  0.00    -0.268 OA
ATOM     12  N   UNL     1     -28.833   7.275 -51.126  1.00  0.00    -0.234 N 
ATOM     13  H   UNL     1     -29.286   6.370 -51.053  1.00  0.00     0.199 HD
BRANCH  12  14
ATOM     14  O   UNL     1     -29.456   8.356 -50.488  1.00  0.00    -0.288 OA
ATOM     15  H   UNL     1     -29.387   8.076 -49.561  1.00  0.00     0.246 HD
ENDBRANCH  12  14
ENDBRANCH   9  10
ENDBRANCH   3   8
ENDBRANCH   1   2
BRANCH   1  16
ATOM     16  N   UNL     1     -24.528   0.840 -56.054  1.00  0.00    -0.312 NA
ATOM     17  H   UNL     1     -24.172   1.315 -55.225  1.00  0.00     0.123 HD
BRANCH  16  18
ATOM     18  C   UNL     1     -23.921   1.428 -57.242  1.00  0.00     0.086 C 
BRANCH  18  19
ATOM     19  C   UNL     1     -22.792   2.409 -56.885  1.00  0.00     0.053 C 
BRANCH  19  20
ATOM     20  C   UNL     1     -23.274   3.605 -56.162  1.00  0.00    -0.018 A 
ATOM     21  C   UNL     1     -24.053   4.661 -56.709  1.00  0.00     0.003 A 
ATOM     22  C   UNL     1     -23.047   3.895 -54.835  1.00  0.00     0.016 A 
ATOM     23  C   UNL     1     -24.281   5.578 -55.682  1.00  0.00     0.046 A 
ATOM     24  C   UNL     1     -24.589   4.926 -57.986  1.00  0.00     0.010 A 
ATOM     25  N   UNL     1     -23.658   5.088 -54.556  1.00  0.00    -0.358 N 
ATOM     26  C   UNL     1     -25.021   6.752 -55.866  1.00  0.00     0.026 A 
ATOM     27  C   UNL     1     -25.331   6.096 -58.185  1.00  0.00     0.001 A 
ATOM     28  C   UNL     1     -25.542   6.993 -57.141  1.00  0.00     0.002 A 
ATOM     29  C   UNL     1     -22.305   3.158 -53.795  1.00  0.00     0.064 C 
ATOM     30  H   UNL     1     -23.657   5.546 -53.655  1.00  0.00     0.166 HD
ENDBRANCH  19  20
ENDBRANCH  18  19
ENDBRANCH  16  18
ENDBRANCH   1  16
TORSDOF 8
ENDMDL
MODEL 2
REMARK VINA RESULT:      -4.7      1.060      2.051
REMARK SMILES Cc1[nH]c2ccccc2c1CCNCc1ccc(/C=C/C(=O)NO)cc1
REMARK SMILES IDX 14 1 15 2 18 3 17 4 25 5 16 6 26 7 19 8 20 9 21 10 22 11
REMARK SMILES IDX 23 12 24 14 13 16 12 18 11 19 10 20 9 21 2 22 4 23 8 24 3 25
REMARK SMILES IDX 5 26 7 27 6 28 1 29
REMARK H PARENT 23 13 24 15 13 17 3 30
ROOT
ATOM      1  C   UNL     1     -26.002   1.102 -56.196  1.00  0.00     0.116 C 
ENDROOT
BRANCH   1   2
ATOM      2  C   UNL     1     -26.467   2.294 -55.401  1.00  0.00    -0.034 A 
ATOM      3  C   UNL     1     -27.325   4.490 -53.938  1.00  0.00    -0.025 A 
ATOM      4  C   UNL     1     -26.582   3.485 -53.318  1.00  0.00     0.008 A 
ATOM      5  C   UNL     1     -27.637   4.391 -55.294  1.00  0.00     0.008 A 
ATOM      6  C   UNL     1     -26.150   2.382 -54.053  1.00  0.00     0.005 A 
ATOM      7  C   UNL     1     -27.206   3.287 -56.030  1.00  0.00     0.005 A 
BRANCH   3   8
ATOM      8  C   UNL     1     -27.775   5.641 -53.170  1.00  0.00     0.014 C 
ATOM      9  C   UNL     1     -26.999   6.380 -52.345  1.00  0.00     0.074 C 
BRANCH   9  10
ATOM     10  C   UNL     1     -27.566   7.547 -51.616  1.00  0.00     0.267 C 
ATOM     11  O   UNL     1     -26.946   8.593 -51.453  1.00  0.00    -0.268 OA
ATOM     12  N   UNL     1     -28.839   7.298 -51.172  1.00  0.00    -0.234 N 
ATOM     13  H   UNL     1     -29.393   6.465 -51.340  1.00  0.00     0.199 HD
BRANCH  12  14
ATOM     14  O   UNL     1     -29.456   8.347 -50.477  1.00  0.00    -0.288 OA
ATOM     15  H   UNL     1     -29.606   7.922 -49.616  1.00  0.00     0.246 HD
ENDBRANCH  12  14
ENDBRANCH   9  10
ENDBRANCH   3   8
ENDBRANCH   1   2
BRANCH   1  16
ATOM     16  N   UNL     1     -24.581   0.846 -56.008  1.00  0.00    -0.312 NA
ATOM     17  H   UNL     1     -24.208   1.475 -55.297  1.00  0.00     0.123 HD
BRANCH  16  18
ATOM     18  C   UNL     1     -23.849   1.043 -57.254  1.00  0.00     0.086 C 
BRANCH  18  19
ATOM     19  C   UNL     1     -22.884   2.238 -57.170  1.00  0.00     0.053 C 
BRANCH  19  20
ATOM     20  C   UNL     1     -23.568   3.542 -57.298  1.00  0.00    -0.018 A 
ATOM     21  C   UNL     1     -23.745   4.504 -56.265  1.00  0.00     0.003 A 
ATOM     22  C   UNL     1     -24.149   4.043 -58.441  1.00  0.00     0.016 A 
ATOM     23  C   UNL     1     -24.440   5.580 -56.821  1.00  0.00     0.046 A 
ATOM     24  C   UNL     1     -23.378   4.563 -54.906  1.00  0.00     0.010 A 
ATOM     25  N   UNL     1     -24.673   5.272 -58.143  1.00  0.00    -0.358 N 
ATOM     26  C   UNL     1     -24.790   6.716 -56.083  1.00  0.00     0.026 A 
ATOM     27  C   UNL     1     -23.721   5.694 -54.155  1.00  0.00     0.001 A 
ATOM     28  C   UNL     1     -24.415   6.752 -54.736  1.00  0.00     0.002 A 
ATOM     29  C   UNL     1     -24.264   3.476 -59.798  1.00  0.00     0.064 C 
ATOM     30  H   UNL     1     -25.160   5.871 -58.795  1.00  0.00     0.166 HD
ENDBRANCH  19  20
ENDBRANCH  18  19
ENDBRANCH  16  18
ENDBRANCH   1  16
TORSDOF 8
ENDMDL
MODEL 3
REMARK VINA RESULT:      -4.5      3.376      6.682
REMARK SMILES Cc1[nH]c2ccccc2c1CCNCc1ccc(/C=C/C(=O)NO)cc1
REMARK SMILES IDX 14 1 15 2 18 3 17 4 25 5 16 6 26 7 19 8 20 9 21 10 22 11
REMARK SMILES IDX 23 12 24 14 13 16 12 18 11 19 10 20 9 21 2 22 4 23 8 24 3 25
REMARK SMILES IDX 5 26 7 27 6 28 1 29
REMARK H PARENT 23 13 24 15 13 17 3 30
ROOT
ATOM      1  C   UNL     1     -29.375   8.644 -52.547  1.00  0.00     0.116 C 
ENDROOT
BRANCH   1   2
ATOM      2  C   UNL     1     -28.473   7.553 -53.063  1.00  0.00    -0.034 A 
ATOM      3  C   UNL     1     -26.813   5.542 -54.013  1.00  0.00    -0.025 A 
ATOM      4  C   UNL     1     -27.352   6.477 -54.897  1.00  0.00     0.008 A 
ATOM      5  C   UNL     1     -27.106   5.618 -52.651  1.00  0.00     0.008 A 
ATOM      6  C   UNL     1     -28.187   7.487 -54.420  1.00  0.00     0.005 A 
ATOM      7  C   UNL     1     -27.941   6.629 -52.174  1.00  0.00     0.005 A 
BRANCH   3   8
ATOM      8  C   UNL     1     -25.942   4.489 -54.511  1.00  0.00     0.014 C 
ATOM      9  C   UNL     1     -25.514   3.425 -53.794  1.00  0.00     0.074 C 
BRANCH   9  10
ATOM     10  C   UNL     1     -24.630   2.400 -54.412  1.00  0.00     0.267 C 
ATOM     11  O   UNL     1     -23.423   2.347 -54.197  1.00  0.00    -0.268 OA
ATOM     12  N   UNL     1     -25.334   1.546 -55.222  1.00  0.00    -0.234 N 
ATOM     13  H   UNL     1     -26.337   1.533 -55.372  1.00  0.00     0.199 HD
BRANCH  12  14
ATOM     14  O   UNL     1     -24.581   0.540 -55.843  1.00  0.00    -0.288 OA
ATOM     15  H   UNL     1     -24.309   1.002 -56.654  1.00  0.00     0.246 HD
ENDBRANCH  12  14
ENDBRANCH   9  10
ENDBRANCH   3   8
ENDBRANCH   1   2
BRANCH   1  16
ATOM     16  N   UNL     1     -28.697   9.931 -52.503  1.00  0.00    -0.312 NA
ATOM     17  H   UNL     1     -27.956   9.956 -53.204  1.00  0.00     0.123 HD
BRANCH  16  18
ATOM     18  C   UNL     1     -28.119  10.169 -51.186  1.00  0.00     0.086 C 
BRANCH  18  19
ATOM     19  C   UNL     1     -26.654  10.632 -51.276  1.00  0.00     0.053 C 
BRANCH  19  20
ATOM     20  C   UNL     1     -25.723   9.537 -51.621  1.00  0.00    -0.018 A 
ATOM     21  C   UNL     1     -25.235   9.226 -52.920  1.00  0.00     0.003 A 
ATOM     22  C   UNL     1     -25.173   8.634 -50.739  1.00  0.00     0.016 A 
ATOM     23  C   UNL     1     -24.388   8.124 -52.787  1.00  0.00     0.046 A 
ATOM     24  C   UNL     1     -25.433   9.779 -54.201  1.00  0.00     0.010 A 
ATOM     25  N   UNL     1     -24.370   7.786 -51.453  1.00  0.00    -0.358 N 
ATOM     26  C   UNL     1     -23.726   7.544 -53.876  1.00  0.00     0.026 A 
ATOM     27  C   UNL     1     -24.777   9.209 -55.299  1.00  0.00     0.001 A 
ATOM     28  C   UNL     1     -23.937   8.110 -55.136  1.00  0.00     0.002 A 
ATOM     29  C   UNL     1     -25.331   8.486 -49.280  1.00  0.00     0.064 C 
ATOM     30  H   UNL     1     -23.838   7.021 -51.061  1.00  0.00     0.166 HD
ENDBRANCH  19  20
ENDBRANCH  18  19
ENDBRANCH  16  18
ENDBRANCH   1  16
TORSDOF 8
ENDMDL
