MODEL 1
REMARK VINA RESULT:      -4.7      0.000      0.000
REMARK SMILES Fc1ccc([C@@H]2CCNC[C@H]2COc2ccc3c(c2)OCO3)cc1
REMARK SMILES IDX 9 1 6 2 11 3 7 4 10 5 8 6 5 8 2 9 3 10 24 11 4 12 23 13 1 14
REMARK SMILES IDX 12 15 13 16 14 17 19 18 15 19 18 20 16 21 20 22 17 23 21 24
REMARK SMILES IDX 22 25
REMARK H PARENT 9 7
ROOT
ATOM      1  N   UNL     1     -29.017   8.843 -52.576  1.00  0.00    -0.316 NA
ATOM      2  C   UNL     1     -27.630   6.280 -52.909  1.00  0.00     0.028 C 
ATOM      3  C   UNL     1     -27.168   7.564 -53.645  1.00  0.00     0.048 C 
ATOM      4  C   UNL     1     -29.125   6.381 -52.550  1.00  0.00     0.024 C 
ATOM      5  C   UNL     1     -27.581   8.815 -52.847  1.00  0.00     0.088 C 
ATOM      6  C   UNL     1     -29.433   7.676 -51.802  1.00  0.00     0.081 C 
ATOM      7  H   UNL     1     -29.522   8.851 -53.463  1.00  0.00     0.122 HD
ENDROOT
BRANCH   2   8
ATOM      8  C   UNL     1     -27.355   4.998 -53.679  1.00  0.00    -0.044 A 
ATOM      9  C   UNL     1     -26.854   2.651 -55.090  1.00  0.00     0.123 A 
ATOM     10  C   UNL     1     -26.195   2.896 -53.885  1.00  0.00     0.039 A 
ATOM     11  C   UNL     1     -27.765   3.584 -55.588  1.00  0.00     0.039 A 
ATOM     12  C   UNL     1     -26.447   4.071 -53.178  1.00  0.00     0.007 A 
ATOM     13  C   UNL     1     -28.015   4.760 -54.881  1.00  0.00     0.007 A 
ATOM     14  F   UNL     1     -26.612   1.522 -55.769  1.00  0.00    -0.207 F 
ENDBRANCH   2   8
BRANCH   3  15
ATOM     15  C   UNL     1     -25.652   7.582 -53.872  1.00  0.00     0.235 C 
BRANCH  15  16
ATOM     16  O   UNL     1     -25.405   7.300 -55.236  1.00  0.00    -0.493 OA
BRANCH  16  17
ATOM     17  C   UNL     1     -24.620   6.208 -55.516  1.00  0.00     0.123 A 
ATOM     18  C   UNL     1     -23.607   5.851 -54.632  1.00  0.00     0.097 A 
ATOM     19  C   UNL     1     -24.858   5.478 -56.688  1.00  0.00     0.050 A 
ATOM     20  C   UNL     1     -22.846   4.747 -54.957  1.00  0.00     0.169 A 
ATOM     21  C   UNL     1     -24.073   4.364 -56.993  1.00  0.00     0.054 A 
ATOM     22  O   UNL     1     -21.815   4.243 -54.224  1.00  0.00    -0.453 OA
ATOM     23  C   UNL     1     -23.072   4.023 -56.106  1.00  0.00     0.166 A 
ATOM     24  C   UNL     1     -21.419   3.122 -55.040  1.00  0.00     0.468 C 
ATOM     25  O   UNL     1     -22.213   2.977 -56.235  1.00  0.00    -0.454 OA
ENDBRANCH  16  17
ENDBRANCH  15  16
ENDBRANCH   3  15
TORSDOF 4
ENDMDL
MODEL 2
REMARK VINA RESULT:      -4.5      3.618      6.935
REMARK SMILES Fc1ccc([C@@H]2CCNC[C@H]2COc2ccc3c(c2)OCO3)cc1
REMARK SMILES IDX 9 1 6 2 11 3 7 4 10 5 8 6 5 8 2 9 3 10 24 11 4 12 23 13 1 14
REMARK SMILES IDX 12 15 13 16 14 17 19 18 15 19 18 20 16 21 20 22 17 23 21 24
REMARK SMILES IDX 22 25
REMARK H PARENT 9 7
ROOT
ATOM      1  N   UNL     1     -23.645   0.102 -59.386  1.00  0.00    -0.316 NA
ATOM      2  C   UNL     1     -23.400   1.701 -56.939  1.00  0.00     0.028 C 
ATOM      3  C   UNL     1     -24.773   1.205 -57.460  1.00  0.00     0.048 C 
ATOM      4  C   UNL     1     -22.391   1.789 -58.100  1.00  0.00     0.024 C 
ATOM      5  C   UNL     1     -24.597  -0.080 -58.291  1.00  0.00     0.088 C 
ATOM      6  C   UNL     1     -22.326   0.480 -58.883  1.00  0.00     0.081 C 
ATOM      7  H   UNL     1     -23.988   0.836 -60.005  1.00  0.00     0.122 HD
ENDROOT
BRANCH   2   8
ATOM      8  C   UNL     1     -23.467   3.025 -56.195  1.00  0.00    -0.044 A 
ATOM      9  C   UNL     1     -23.591   5.448 -54.830  1.00  0.00     0.123 A 
ATOM     10  C   UNL     1     -23.987   5.379 -56.166  1.00  0.00     0.039 A 
ATOM     11  C   UNL     1     -23.133   4.303 -54.178  1.00  0.00     0.039 A 
ATOM     12  C   UNL     1     -23.925   4.165 -56.849  1.00  0.00     0.007 A 
ATOM     13  C   UNL     1     -23.071   3.089 -54.862  1.00  0.00     0.007 A 
ATOM     14  F   UNL     1     -23.650   6.615 -54.174  1.00  0.00    -0.207 F 
ENDBRANCH   2   8
BRANCH   3  15
ATOM     15  C   UNL     1     -25.760   0.941 -56.317  1.00  0.00     0.235 C 
BRANCH  15  16
ATOM     16  O   UNL     1     -26.839   1.845 -56.446  1.00  0.00    -0.493 OA
BRANCH  16  17
ATOM     17  C   UNL     1     -26.944   2.834 -55.498  1.00  0.00     0.123 A 
ATOM     18  C   UNL     1     -27.460   4.074 -55.861  1.00  0.00     0.097 A 
ATOM     19  C   UNL     1     -26.529   2.570 -54.187  1.00  0.00     0.050 A 
ATOM     20  C   UNL     1     -27.545   5.035 -54.874  1.00  0.00     0.169 A 
ATOM     21  C   UNL     1     -26.628   3.560 -53.206  1.00  0.00     0.054 A 
ATOM     22  O   UNL     1     -28.018   6.301 -55.031  1.00  0.00    -0.453 OA
ATOM     23  C   UNL     1     -27.141   4.785 -53.582  1.00  0.00     0.166 A 
ATOM     24  C   UNL     1     -27.867   6.820 -53.694  1.00  0.00     0.468 C 
ATOM     25  O   UNL     1     -27.310   5.863 -52.770  1.00  0.00    -0.454 OA
ENDBRANCH  16  17
ENDBRANCH  15  16
ENDBRANCH   3  15
TORSDOF 4
ENDMDL
MODEL 3
REMARK VINA RESULT:      -4.4      3.368      5.033
REMARK SMILES Fc1ccc([C@@H]2CCNC[C@H]2COc2ccc3c(c2)OCO3)cc1
REMARK SMILES IDX 9 1 6 2 11 3 7 4 10 5 8 6 5 8 2 9 3 10 24 11 4 12 23 13 1 14
REMARK SMILES IDX 12 15 13 16 14 17 19 18 15 19 18 20 16 21 20 22 17 23 21 24
REMARK SMILES IDX 22 25
REMARK H PARENT 9 7
ROOT
ATOM      1  N   UNL     1     -29.994   6.877 -52.194  1.00  0.00    -0.316 NA
ATOM      2  C   UNL     1     -27.295   8.022 -52.285  1.00  0.00     0.028 C 
ATOM      3  C   UNL     1     -27.534   6.493 -52.191  1.00  0.00     0.048 C 
ATOM      4  C   UNL     1     -28.509   8.786 -51.722  1.00  0.00     0.024 C 
ATOM      5  C   UNL     1     -28.898   6.126 -52.806  1.00  0.00     0.088 C 
ATOM      6  C   UNL     1     -29.811   8.316 -52.366  1.00  0.00     0.081 C 
ATOM      7  H   UNL     1     -30.026   6.662 -51.197  1.00  0.00     0.122 HD
ENDROOT
BRANCH   2   8
ATOM      8  C   UNL     1     -26.016   8.487 -51.607  1.00  0.00    -0.044 A 
ATOM      9  C   UNL     1     -23.674   9.337 -50.364  1.00  0.00     0.123 A 
ATOM     10  C   UNL     1     -23.853   9.543 -51.732  1.00  0.00     0.039 A 
ATOM     11  C   UNL     1     -24.670   8.705 -49.619  1.00  0.00     0.039 A 
ATOM     12  C   UNL     1     -25.026   9.118 -52.354  1.00  0.00     0.007 A 
ATOM     13  C   UNL     1     -25.843   8.278 -50.242  1.00  0.00     0.007 A 
ATOM     14  F   UNL     1     -22.548   9.746 -49.766  1.00  0.00    -0.207 F 
ENDBRANCH   2   8
BRANCH   3  15
ATOM     15  C   UNL     1     -26.428   5.695 -52.891  1.00  0.00     0.235 C 
BRANCH  15  16
ATOM     16  O   UNL     1     -26.846   4.348 -52.986  1.00  0.00    -0.493 OA
BRANCH  16  17
ATOM     17  C   UNL     1     -26.134   3.529 -53.829  1.00  0.00     0.123 A 
ATOM     18  C   UNL     1     -26.817   2.663 -54.676  1.00  0.00     0.097 A 
ATOM     19  C   UNL     1     -24.735   3.588 -53.817  1.00  0.00     0.050 A 
ATOM     20  C   UNL     1     -26.058   1.861 -55.505  1.00  0.00     0.169 A 
ATOM     21  C   UNL     1     -23.991   2.766 -54.667  1.00  0.00     0.054 A 
ATOM     22  O   UNL     1     -26.540   0.954 -56.398  1.00  0.00    -0.453 OA
ATOM     23  C   UNL     1     -24.683   1.912 -55.500  1.00  0.00     0.166 A 
ATOM     24  C   UNL     1     -25.313   0.439 -56.955  1.00  0.00     0.468 C 
ATOM     25  O   UNL     1     -24.132   1.043 -56.390  1.00  0.00    -0.454 OA
ENDBRANCH  16  17
ENDBRANCH  15  16
ENDBRANCH   3  15
TORSDOF 4
ENDMDL
