MODEL 1
REMARK VINA RESULT:      -7.5      0.000      0.000
REMARK SMILES Fc1ccc([C@@H]2CCNC[C@H]2COc2ccc3c(c2)OCO3)cc1
REMARK SMILES IDX 9 1 6 2 11 3 7 4 10 5 8 6 5 8 2 9 3 10 24 11 4 12 23 13 1 14
REMARK SMILES IDX 12 15 13 16 14 17 19 18 15 19 18 20 16 21 20 22 17 23 21 24
REMARK SMILES IDX 22 25
REMARK H PARENT 9 7
ROOT
ATOM      1  N   UNL     1      17.823  -2.256   6.746  1.00  0.00    -0.316 NA
ATOM      2  C   UNL     1      19.199  -0.049   5.391  1.00  0.00     0.028 C 
ATOM      3  C   UNL     1      18.903  -0.019   6.913  1.00  0.00     0.048 C 
ATOM      4  C   UNL     1      18.203  -0.979   4.673  1.00  0.00     0.024 C 
ATOM      5  C   UNL     1      18.811  -1.454   7.467  1.00  0.00     0.088 C 
ATOM      6  C   UNL     1      18.156  -2.358   5.327  1.00  0.00     0.081 C 
ATOM      7  H   UNL     1      16.906  -1.818   6.842  1.00  0.00     0.122 HD
ENDROOT
BRANCH   2   8
ATOM      8  C   UNL     1      19.204   1.325   4.740  1.00  0.00    -0.044 A 
ATOM      9  C   UNL     1      19.211   3.841   3.547  1.00  0.00     0.123 A 
ATOM     10  C   UNL     1      20.397   3.112   3.647  1.00  0.00     0.039 A 
ATOM     11  C   UNL     1      18.022   3.309   4.046  1.00  0.00     0.039 A 
ATOM     12  C   UNL     1      20.393   1.852   4.243  1.00  0.00     0.007 A 
ATOM     13  C   UNL     1      18.019   2.048   4.644  1.00  0.00     0.007 A 
ATOM     14  F   UNL     1      19.215   5.051   2.974  1.00  0.00    -0.207 F 
ENDBRANCH   2   8
BRANCH   3  15
ATOM     15  C   UNL     1      19.971   0.759   7.690  1.00  0.00     0.235 C 
BRANCH  15  16
ATOM     16  O   UNL     1      20.271   0.041   8.870  1.00  0.00    -0.493 OA
BRANCH  16  17
ATOM     17  C   UNL     1      19.783   0.546  10.051  1.00  0.00     0.123 A 
ATOM     18  C   UNL     1      19.440  -0.330  11.077  1.00  0.00     0.097 A 
ATOM     19  C   UNL     1      19.642   1.932  10.196  1.00  0.00     0.050 A 
ATOM     20  C   UNL     1      18.954   0.225  12.244  1.00  0.00     0.169 A 
ATOM     21  C   UNL     1      19.149   2.467  11.389  1.00  0.00     0.054 A 
ATOM     22  O   UNL     1      18.567  -0.462  13.353  1.00  0.00    -0.453 OA
ATOM     23  C   UNL     1      18.813   1.585  12.395  1.00  0.00     0.166 A 
ATOM     24  C   UNL     1      18.166   0.619  14.220  1.00  0.00     0.468 C 
ATOM     25  O   UNL     1      18.319   1.920  13.618  1.00  0.00    -0.454 OA
ENDBRANCH  16  17
ENDBRANCH  15  16
ENDBRANCH   3  15
TORSDOF 4
ENDMDL
MODEL 2
REMARK VINA RESULT:      -7.4     12.308     15.019
REMARK SMILES Fc1ccc([C@@H]2CCNC[C@H]2COc2ccc3c(c2)OCO3)cc1
REMARK SMILES IDX 9 1 6 2 11 3 7 4 10 5 8 6 5 8 2 9 3 10 24 11 4 12 23 13 1 14
REMARK SMILES IDX 12 15 13 16 14 17 19 18 15 19 18 20 16 21 20 22 17 23 21 24
REMARK SMILES IDX 22 25
REMARK H PARENT 9 7
ROOT
ATOM      1  N   UNL     1      24.190  -9.488  20.483  1.00  0.00    -0.316 NA
ATOM      2  C   UNL     1      23.668  -6.627  20.105  1.00  0.00     0.028 C 
ATOM      3  C   UNL     1      23.801  -7.601  18.907  1.00  0.00     0.048 C 
ATOM      4  C   UNL     1      24.417  -7.186  21.330  1.00  0.00     0.024 C 
ATOM      5  C   UNL     1      23.411  -9.029  19.333  1.00  0.00     0.088 C 
ATOM      6  C   UNL     1      23.990  -8.618  21.639  1.00  0.00     0.081 C 
ATOM      7  H   UNL     1      25.179  -9.489  20.234  1.00  0.00     0.122 HD
ENDROOT
BRANCH   2   8
ATOM      8  C   UNL     1      24.133  -5.211  19.801  1.00  0.00    -0.044 A 
ATOM      9  C   UNL     1      24.983  -2.620  19.242  1.00  0.00     0.123 A 
ATOM     10  C   UNL     1      25.832  -3.504  19.909  1.00  0.00     0.039 A 
ATOM     11  C   UNL     1      23.708  -3.034  18.856  1.00  0.00     0.039 A 
ATOM     12  C   UNL     1      25.406  -4.802  20.188  1.00  0.00     0.007 A 
ATOM     13  C   UNL     1      23.283  -4.333  19.136  1.00  0.00     0.007 A 
ATOM     14  F   UNL     1      25.392  -1.373  18.974  1.00  0.00    -0.207 F 
ENDBRANCH   2   8
BRANCH   3  15
ATOM     15  C   UNL     1      22.934  -7.170  17.718  1.00  0.00     0.235 C 
BRANCH  15  16
ATOM     16  O   UNL     1      21.958  -8.169  17.495  1.00  0.00    -0.493 OA
BRANCH  16  17
ATOM     17  C   UNL     1      21.833  -8.646  16.213  1.00  0.00     0.123 A 
ATOM     18  C   UNL     1      21.709 -10.016  16.005  1.00  0.00     0.097 A 
ATOM     19  C   UNL     1      21.832  -7.741  15.145  1.00  0.00     0.050 A 
ATOM     20  C   UNL     1      21.585 -10.447  14.700  1.00  0.00     0.169 A 
ATOM     21  C   UNL     1      21.704  -8.205  13.832  1.00  0.00     0.054 A 
ATOM     22  O   UNL     1      21.455 -11.740  14.295  1.00  0.00    -0.453 OA
ATOM     23  C   UNL     1      21.582  -9.566  13.643  1.00  0.00     0.166 A 
ATOM     24  C   UNL     1      21.369 -11.574  12.865  1.00  0.00     0.468 C 
ATOM     25  O   UNL     1      21.450 -10.197  12.445  1.00  0.00    -0.454 OA
ENDBRANCH  16  17
ENDBRANCH  15  16
ENDBRANCH   3  15
TORSDOF 4
ENDMDL
MODEL 3
REMARK VINA RESULT:      -7.3     12.898     15.137
REMARK SMILES Fc1ccc([C@@H]2CCNC[C@H]2COc2ccc3c(c2)OCO3)cc1
REMARK SMILES IDX 9 1 6 2 11 3 7 4 10 5 8 6 5 8 2 9 3 10 24 11 4 12 23 13 1 14
REMARK SMILES IDX 12 15 13 16 14 17 19 18 15 19 18 20 16 21 20 22 17 23 21 24
REMARK SMILES IDX 22 25
REMARK H PARENT 9 7
ROOT
ATOM      1  N   UNL     1      26.017  -6.025  20.061  1.00  0.00    -0.316 NA
ATOM      2  C   UNL     1      23.792  -6.916  18.369  1.00  0.00     0.028 C 
ATOM      3  C   UNL     1      24.870  -7.900  18.892  1.00  0.00     0.048 C 
ATOM      4  C   UNL     1      24.359  -5.484  18.320  1.00  0.00     0.024 C 
ATOM      5  C   UNL     1      25.480  -7.377  20.206  1.00  0.00     0.088 C 
ATOM      6  C   UNL     1      24.977  -5.082  19.657  1.00  0.00     0.081 C 
ATOM      7  H   UNL     1      26.751  -6.035  19.352  1.00  0.00     0.122 HD
ENDROOT
BRANCH   2   8
ATOM      8  C   UNL     1      23.211  -7.303  17.018  1.00  0.00    -0.044 A 
ATOM      9  C   UNL     1      22.145  -8.012  14.546  1.00  0.00     0.123 A 
ATOM     10  C   UNL     1      23.463  -7.560  14.635  1.00  0.00     0.039 A 
ATOM     11  C   UNL     1      21.362  -8.107  15.697  1.00  0.00     0.039 A 
ATOM     12  C   UNL     1      23.996  -7.206  15.873  1.00  0.00     0.007 A 
ATOM     13  C   UNL     1      21.896  -7.752  16.935  1.00  0.00     0.007 A 
ATOM     14  F   UNL     1      21.633  -8.352  13.356  1.00  0.00    -0.207 F 
ENDBRANCH   2   8
BRANCH   3  15
ATOM     15  C   UNL     1      24.303  -9.307  19.117  1.00  0.00     0.235 C 
BRANCH  15  16
ATOM     16  O   UNL     1      24.903 -10.182  18.183  1.00  0.00    -0.493 OA
BRANCH  16  17
ATOM     17  C   UNL     1      24.091 -10.705  17.205  1.00  0.00     0.123 A 
ATOM     18  C   UNL     1      24.564 -10.791  15.900  1.00  0.00     0.097 A 
ATOM     19  C   UNL     1      22.805 -11.141  17.547  1.00  0.00     0.050 A 
ATOM     20  C   UNL     1      23.712 -11.323  14.954  1.00  0.00     0.169 A 
ATOM     21  C   UNL     1      21.963 -11.678  16.569  1.00  0.00     0.054 A 
ATOM     22  O   UNL     1      23.991 -11.488  13.632  1.00  0.00    -0.453 OA
ATOM     23  C   UNL     1      22.447 -11.755  15.280  1.00  0.00     0.166 A 
ATOM     24  C   UNL     1      22.758 -12.073  13.162  1.00  0.00     0.468 C 
ATOM     25  O   UNL     1      21.775 -12.245  14.203  1.00  0.00    -0.454 OA
ENDBRANCH  16  17
ENDBRANCH  15  16
ENDBRANCH   3  15
TORSDOF 4
ENDMDL
