MODEL 1
REMARK VINA RESULT:      -5.8      0.000      0.000
REMARK SMILES CN/C(=C\[N+](=O)[O-])NCCSCc1ccc(CN(C)C)o1
REMARK SMILES IDX 11 1 12 2 13 3 21 4 14 5 16 6 15 7 17 8 18 9 19 10 20 11
REMARK SMILES IDX 10 12 9 13 8 14 3 16 4 17 2 18 1 19 5 21 6 22 7 23
REMARK H PARENT 8 15 2 20
ROOT
ATOM      1  S   UNL     1      19.447  -0.911  11.272  1.00  0.00    -0.152 SA
ENDROOT
BRANCH   1   2
ATOM      2  C   UNL     1      20.638  -0.761   9.922  1.00  0.00     0.144 C 
BRANCH   2   3
ATOM      3  C   UNL     1      19.947  -0.508   8.612  1.00  0.00     0.114 A 
ATOM      4  O   UNL     1      19.450  -1.599   7.973  1.00  0.00    -0.464 OA
ATOM      5  C   UNL     1      19.695   0.633   7.886  1.00  0.00     0.047 A 
ATOM      6  C   UNL     1      18.875  -1.150   6.827  1.00  0.00     0.118 A 
ATOM      7  C   UNL     1      18.999   0.216   6.728  1.00  0.00     0.047 A 
BRANCH   6   8
ATOM      8  C   UNL     1      18.264  -2.170   5.964  1.00  0.00     0.159 C 
BRANCH   8   9
ATOM      9  N   UNL     1      16.883  -1.827   5.583  1.00  0.00    -0.302 NA
ATOM     10  C   UNL     1      16.000  -2.964   5.822  1.00  0.00     0.105 C 
ATOM     11  C   UNL     1      16.837  -1.418   4.184  1.00  0.00     0.105 C 
ENDBRANCH   8   9
ENDBRANCH   6   8
ENDBRANCH   2   3
ENDBRANCH   1   2
BRANCH   1  12
ATOM     12  C   UNL     1      19.138   0.861  11.543  1.00  0.00     0.091 C 
BRANCH  12  13
ATOM     13  C   UNL     1      19.638   1.335  12.903  1.00  0.00     0.125 C 
BRANCH  13  14
ATOM     14  N   UNL     1      19.717   0.243  13.844  1.00  0.00    -0.366 N 
ATOM     15  H   UNL     1      20.389  -0.494  13.663  1.00  0.00     0.162 HD
BRANCH  14  16
ATOM     16  C   UNL     1      18.962   0.093  15.009  1.00  0.00     0.171 C 
ATOM     17  C   UNL     1      18.488   1.150  15.704  1.00  0.00     0.424 C 
BRANCH  16  18
ATOM     18  N   UNL     1      18.680  -1.193  15.486  1.00  0.00    -0.370 N 
ATOM     19  C   UNL     1      17.631  -2.093  15.072  1.00  0.00     0.141 C 
ATOM     20  H   UNL     1      19.282  -1.550  16.221  1.00  0.00     0.161 HD
ENDBRANCH  16  18
BRANCH  17  21
ATOM     21  N   UNL     1      17.724   0.951  16.884  1.00  0.00     0.058 N 
ATOM     22  O   UNL     1      18.336   0.919  17.962  1.00  0.00    -0.259 OA
ATOM     23  O   UNL     1      16.497   0.821  16.753  1.00  0.00    -0.259 OA
ENDBRANCH  17  21
ENDBRANCH  14  16
ENDBRANCH  13  14
ENDBRANCH  12  13
ENDBRANCH   1  12
TORSDOF 10
ENDMDL
MODEL 2
REMARK VINA RESULT:      -5.6      2.091      2.703
REMARK SMILES CN/C(=C\[N+](=O)[O-])NCCSCc1ccc(CN(C)C)o1
REMARK SMILES IDX 11 1 12 2 13 3 21 4 14 5 16 6 15 7 17 8 18 9 19 10 20 11
REMARK SMILES IDX 10 12 9 13 8 14 3 16 4 17 2 18 1 19 5 21 6 22 7 23
REMARK H PARENT 8 15 2 20
ROOT
ATOM      1  S   UNL     1      20.433  -0.989  10.076  1.00  0.00    -0.152 SA
ENDROOT
BRANCH   1   2
ATOM      2  C   UNL     1      20.103   0.315   8.870  1.00  0.00     0.144 C 
BRANCH   2   3
ATOM      3  C   UNL     1      19.370  -0.223   7.674  1.00  0.00     0.114 A 
ATOM      4  O   UNL     1      18.835   0.699   6.832  1.00  0.00    -0.464 OA
ATOM      5  C   UNL     1      19.110  -1.496   7.224  1.00  0.00     0.047 A 
ATOM      6  C   UNL     1      18.226   0.007   5.833  1.00  0.00     0.118 A 
ATOM      7  C   UNL     1      18.368  -1.347   6.029  1.00  0.00     0.047 A 
BRANCH   6   8
ATOM      8  C   UNL     1      17.570   0.810   4.793  1.00  0.00     0.159 C 
BRANCH   8   9
ATOM      9  N   UNL     1      18.531   1.606   4.010  1.00  0.00    -0.302 NA
ATOM     10  C   UNL     1      18.228   3.028   4.142  1.00  0.00     0.105 C 
ATOM     11  C   UNL     1      18.497   1.196   2.611  1.00  0.00     0.105 C 
ENDBRANCH   8   9
ENDBRANCH   6   8
ENDBRANCH   2   3
ENDBRANCH   1   2
BRANCH   1  12
ATOM     12  C   UNL     1      19.693  -0.189  11.533  1.00  0.00     0.091 C 
BRANCH  12  13
ATOM     13  C   UNL     1      19.107  -1.198  12.513  1.00  0.00     0.125 C 
BRANCH  13  14
ATOM     14  N   UNL     1      18.120  -0.585  13.372  1.00  0.00    -0.366 N 
ATOM     15  H   UNL     1      17.351  -0.088  12.935  1.00  0.00     0.162 HD
BRANCH  14  16
ATOM     16  C   UNL     1      18.099  -0.613  14.768  1.00  0.00     0.171 C 
ATOM     17  C   UNL     1      16.948  -0.574  15.475  1.00  0.00     0.424 C 
BRANCH  16  18
ATOM     18  N   UNL     1      19.307  -0.681  15.473  1.00  0.00    -0.370 N 
ATOM     19  C   UNL     1      20.314   0.340  15.627  1.00  0.00     0.141 C 
ATOM     20  H   UNL     1      19.515  -1.559  15.938  1.00  0.00     0.161 HD
ENDBRANCH  16  18
BRANCH  17  21
ATOM     21  N   UNL     1      16.974  -0.605  16.894  1.00  0.00     0.058 N 
ATOM     22  O   UNL     1      17.006  -1.718  17.439  1.00  0.00    -0.259 OA
ATOM     23  O   UNL     1      16.962   0.484  17.487  1.00  0.00    -0.259 OA
ENDBRANCH  17  21
ENDBRANCH  14  16
ENDBRANCH  13  14
ENDBRANCH  12  13
ENDBRANCH   1  12
TORSDOF 10
ENDMDL
MODEL 3
REMARK VINA RESULT:      -5.6      2.433      8.724
REMARK SMILES CN/C(=C\[N+](=O)[O-])NCCSCc1ccc(CN(C)C)o1
REMARK SMILES IDX 11 1 12 2 13 3 21 4 14 5 16 6 15 7 17 8 18 9 19 10 20 11
REMARK SMILES IDX 10 12 9 13 8 14 3 16 4 17 2 18 1 19 5 21 6 22 7 23
REMARK H PARENT 8 15 2 20
ROOT
ATOM      1  S   UNL     1      19.710   2.172  11.164  1.00  0.00    -0.152 SA
ENDROOT
BRANCH   1   2
ATOM      2  C   UNL     1      18.205   2.262  12.159  1.00  0.00     0.144 C 
BRANCH   2   3
ATOM      3  C   UNL     1      18.383   1.569  13.479  1.00  0.00     0.114 A 
ATOM      4  O   UNL     1      17.310   0.878  13.946  1.00  0.00    -0.464 OA
ATOM      5  C   UNL     1      19.437   1.475  14.358  1.00  0.00     0.047 A 
ATOM      6  C   UNL     1      17.683   0.338  15.136  1.00  0.00     0.118 A 
ATOM      7  C   UNL     1      18.983   0.675  15.433  1.00  0.00     0.047 A 
BRANCH   6   8
ATOM      8  C   UNL     1      16.668  -0.464  15.833  1.00  0.00     0.159 C 
BRANCH   8   9
ATOM      9  N   UNL     1      17.235  -1.679  16.442  1.00  0.00    -0.302 NA
ATOM     10  C   UNL     1      16.707  -2.866  15.776  1.00  0.00     0.105 C 
ATOM     11  C   UNL     1      16.936  -1.708  17.870  1.00  0.00     0.105 C 
ENDBRANCH   8   9
ENDBRANCH   6   8
ENDBRANCH   2   3
ENDBRANCH   1   2
BRANCH   1  12
ATOM     12  C   UNL     1      19.674   0.390  10.799  1.00  0.00     0.091 C 
BRANCH  12  13
ATOM     13  C   UNL     1      20.282   0.064   9.440  1.00  0.00     0.125 C 
BRANCH  13  14
ATOM     14  N   UNL     1      19.642  -1.083   8.838  1.00  0.00    -0.366 N 
ATOM     15  H   UNL     1      19.500  -1.905   9.413  1.00  0.00     0.162 HD
BRANCH  14  16
ATOM     16  C   UNL     1      19.176  -1.181   7.525  1.00  0.00     0.171 C 
ATOM     17  C   UNL     1      18.912  -0.094   6.768  1.00  0.00     0.424 C 
BRANCH  16  18
ATOM     18  N   UNL     1      18.968  -2.446   6.962  1.00  0.00    -0.370 N 
ATOM     19  C   UNL     1      19.940  -3.341   6.383  1.00  0.00     0.141 C 
ATOM     20  H   UNL     1      18.013  -2.789   6.949  1.00  0.00     0.161 HD
ENDBRANCH  16  18
BRANCH  17  21
ATOM     21  N   UNL     1      18.440  -0.241   5.438  1.00  0.00     0.058 N 
ATOM     22  O   UNL     1      17.307  -0.722   5.285  1.00  0.00    -0.259 OA
ATOM     23  O   UNL     1      19.194   0.121   4.522  1.00  0.00    -0.259 OA
ENDBRANCH  17  21
ENDBRANCH  14  16
ENDBRANCH  13  14
ENDBRANCH  12  13
ENDBRANCH   1  12
TORSDOF 10
ENDMDL
