MODEL 1
REMARK VINA RESULT:      -8.6      0.000      0.000
REMARK SMILES CN[C@H]1CC[C@@H](c2ccc(Cl)c(Cl)c2)c2ccccc21
REMARK SMILES IDX 6 1 5 2 3 3 4 4 15 5 20 6 16 7 19 8 17 9 18 10 7 11 12 12
REMARK SMILES IDX 14 13 10 14 9 15 8 16 13 17 11 18 2 19 1 20
REMARK H PARENT 2 21
ROOT
ATOM      1  C   UNL     1      19.141  -1.122  14.230  1.00  0.00     0.050 C 
ATOM      2  C   UNL     1      17.761  -1.810  14.256  1.00  0.00     0.015 C 
ATOM      3  C   UNL     1      17.196  -0.848  16.516  1.00  0.00     0.084 C 
ATOM      4  C   UNL     1      17.335  -2.130  15.684  1.00  0.00     0.025 C 
ATOM      5  C   UNL     1      19.349  -0.106  15.349  1.00  0.00    -0.036 A 
ATOM      6  C   UNL     1      18.447   0.003  16.428  1.00  0.00    -0.027 A 
ATOM      7  C   UNL     1      20.512   0.689  15.359  1.00  0.00     0.005 A 
ATOM      8  C   UNL     1      18.702   0.931  17.453  1.00  0.00     0.005 A 
ATOM      9  C   UNL     1      20.751   1.603  16.386  1.00  0.00     0.000 A 
ATOM     10  C   UNL     1      19.845   1.728  17.430  1.00  0.00     0.000 A 
ENDROOT
BRANCH   1  11
ATOM     11  C   UNL     1      19.394  -0.573  12.831  1.00  0.00    -0.039 A 
ATOM     12  C   UNL     1      19.443   1.284  11.298  1.00  0.00     0.059 A 
ATOM     13  C   UNL     1      19.212   0.782  12.579  1.00  0.00     0.026 A 
ATOM     14  C   UNL     1      19.856   0.428  10.277  1.00  0.00     0.059 A 
ATOM     15  C   UNL     1      20.038  -0.930  10.537  1.00  0.00     0.022 A 
ATOM     16  C   UNL     1      19.806  -1.432  11.818  1.00  0.00     0.006 A 
ATOM     17  Cl  UNL     1      19.202   2.977  11.039  1.00  0.00    -0.083 Cl
ATOM     18  Cl  UNL     1      20.159   0.990   8.671  1.00  0.00    -0.083 Cl
ENDBRANCH   1  11
BRANCH   3  19
ATOM     19  N   UNL     1      16.020  -0.085  16.084  1.00  0.00    -0.313 NA
ATOM     20  C   UNL     1      15.275  -0.820  15.076  1.00  0.00     0.102 C 
ATOM     21  H   UNL     1      15.415   0.071  16.890  1.00  0.00     0.122 HD
ENDBRANCH   3  19
TORSDOF 2
ENDMDL
MODEL 2
REMARK VINA RESULT:      -8.3      2.498      3.640
REMARK SMILES CN[C@H]1CC[C@@H](c2ccc(Cl)c(Cl)c2)c2ccccc21
REMARK SMILES IDX 6 1 5 2 3 3 4 4 15 5 20 6 16 7 19 8 17 9 18 10 7 11 12 12
REMARK SMILES IDX 14 13 10 14 9 15 8 16 13 17 11 18 2 19 1 20
REMARK H PARENT 2 21
ROOT
ATOM      1  C   UNL     1      19.635   0.314  11.934  1.00  0.00     0.050 C 
ATOM      2  C   UNL     1      19.761  -1.106  12.523  1.00  0.00     0.015 C 
ATOM      3  C   UNL     1      18.096  -0.621  14.351  1.00  0.00     0.084 C 
ATOM      4  C   UNL     1      19.517  -1.099  14.028  1.00  0.00     0.025 C 
ATOM      5  C   UNL     1      18.496   1.135  12.533  1.00  0.00    -0.036 A 
ATOM      6  C   UNL     1      17.794   0.703  13.678  1.00  0.00    -0.027 A 
ATOM      7  C   UNL     1      18.188   2.396  11.988  1.00  0.00     0.005 A 
ATOM      8  C   UNL     1      16.776   1.513  14.212  1.00  0.00     0.005 A 
ATOM      9  C   UNL     1      17.177   3.189  12.532  1.00  0.00     0.000 A 
ATOM     10  C   UNL     1      16.468   2.746  13.640  1.00  0.00     0.000 A 
ENDROOT
BRANCH   1  11
ATOM     11  C   UNL     1      19.604   0.217  10.414  1.00  0.00    -0.039 A 
ATOM     12  C   UNL     1      19.711  -1.110   8.406  1.00  0.00     0.059 A 
ATOM     13  C   UNL     1      19.739  -1.022   9.798  1.00  0.00     0.026 A 
ATOM     14  C   UNL     1      19.547   0.044   7.638  1.00  0.00     0.059 A 
ATOM     15  C   UNL     1      19.413   1.284   8.262  1.00  0.00     0.022 A 
ATOM     16  C   UNL     1      19.441   1.371   9.653  1.00  0.00     0.006 A 
ATOM     17  Cl  UNL     1      19.882  -2.675   7.691  1.00  0.00    -0.083 Cl
ATOM     18  Cl  UNL     1      19.505  -0.000   5.911  1.00  0.00    -0.083 Cl
ENDBRANCH   1  11
BRANCH   3  19
ATOM     19  N   UNL     1      17.113  -1.637  13.957  1.00  0.00    -0.313 NA
ATOM     20  C   UNL     1      16.380  -2.114  15.117  1.00  0.00     0.102 C 
ATOM     21  H   UNL     1      16.453  -1.221  13.301  1.00  0.00     0.122 HD
ENDBRANCH   3  19
TORSDOF 2
ENDMDL
MODEL 3
REMARK VINA RESULT:      -8.0      1.509      3.216
REMARK SMILES CN[C@H]1CC[C@@H](c2ccc(Cl)c(Cl)c2)c2ccccc21
REMARK SMILES IDX 6 1 5 2 3 3 4 4 15 5 20 6 16 7 19 8 17 9 18 10 7 11 12 12
REMARK SMILES IDX 14 13 10 14 9 15 8 16 13 17 11 18 2 19 1 20
REMARK H PARENT 2 21
ROOT
ATOM      1  C   UNL     1      17.484   0.374  14.348  1.00  0.00     0.050 C 
ATOM      2  C   UNL     1      17.995   1.624  15.094  1.00  0.00     0.015 C 
ATOM      3  C   UNL     1      17.619   0.571  17.352  1.00  0.00     0.084 C 
ATOM      4  C   UNL     1      17.311   1.771  16.448  1.00  0.00     0.025 C 
ATOM      5  C   UNL     1      17.271  -0.841  15.248  1.00  0.00    -0.036 A 
ATOM      6  C   UNL     1      17.312  -0.738  16.654  1.00  0.00    -0.027 A 
ATOM      7  C   UNL     1      16.937  -2.081  14.672  1.00  0.00     0.005 A 
ATOM      8  C   UNL     1      17.074  -1.879  17.439  1.00  0.00     0.005 A 
ATOM      9  C   UNL     1      16.700  -3.205  15.465  1.00  0.00     0.000 A 
ATOM     10  C   UNL     1      16.773  -3.106  16.848  1.00  0.00     0.000 A 
ENDROOT
BRANCH   1  11
ATOM     11  C   UNL     1      18.385   0.112  13.148  1.00  0.00    -0.039 A 
ATOM     12  C   UNL     1      19.391   0.865  11.092  1.00  0.00     0.059 A 
ATOM     13  C   UNL     1      18.566   1.105  12.191  1.00  0.00     0.026 A 
ATOM     14  C   UNL     1      20.032  -0.367  10.957  1.00  0.00     0.059 A 
ATOM     15  C   UNL     1      19.846  -1.358  11.920  1.00  0.00     0.022 A 
ATOM     16  C   UNL     1      19.021  -1.118  13.019  1.00  0.00     0.006 A 
ATOM     17  Cl  UNL     1      19.581   2.133   9.932  1.00  0.00    -0.083 Cl
ATOM     18  Cl  UNL     1      21.065  -0.725   9.619  1.00  0.00    -0.083 Cl
ENDBRANCH   1  11
BRANCH   3  19
ATOM     19  N   UNL     1      19.019   0.609  17.790  1.00  0.00    -0.313 NA
ATOM     20  C   UNL     1      19.632   1.878  17.435  1.00  0.00     0.102 C 
ATOM     21  H   UNL     1      19.050   0.502  18.804  1.00  0.00     0.122 HD
ENDBRANCH   3  19
TORSDOF 2
ENDMDL
