MODEL 1
REMARK VINA RESULT:      -5.1      0.000      0.000
REMARK SMILES CN[C@H]1CC[C@@H](c2ccc(Cl)c(Cl)c2)c2ccccc21
REMARK SMILES IDX 6 1 5 2 3 3 4 4 15 5 20 6 16 7 19 8 17 9 18 10 7 11 12 12
REMARK SMILES IDX 14 13 10 14 9 15 8 16 13 17 11 18 2 19 1 20
REMARK H PARENT 2 21
ROOT
ATOM      1  C   UNL     1     -12.165   0.818 -45.146  1.00  0.00     0.050 C 
ATOM      2  C   UNL     1     -12.741   2.248 -45.206  1.00  0.00     0.015 C 
ATOM      3  C   UNL     1     -12.163   2.706 -42.797  1.00  0.00     0.084 C 
ATOM      4  C   UNL     1     -13.280   2.680 -43.848  1.00  0.00     0.025 C 
ATOM      5  C   UNL     1     -11.385   0.517 -43.869  1.00  0.00    -0.036 A 
ATOM      6  C   UNL     1     -11.406   1.394 -42.764  1.00  0.00    -0.027 A 
ATOM      7  C   UNL     1     -10.695  -0.704 -43.748  1.00  0.00     0.005 A 
ATOM      8  C   UNL     1     -10.700   1.054 -41.597  1.00  0.00     0.005 A 
ATOM      9  C   UNL     1     -10.001  -1.028 -42.581  1.00  0.00     0.000 A 
ATOM     10  C   UNL     1      -9.999  -0.147 -41.508  1.00  0.00     0.000 A 
ENDROOT
BRANCH   1  11
ATOM     11  C   UNL     1     -11.393   0.542 -46.430  1.00  0.00    -0.039 A 
ATOM     12  C   UNL     1     -10.037   1.330 -48.258  1.00  0.00     0.059 A 
ATOM     13  C   UNL     1     -10.743   1.584 -47.083  1.00  0.00     0.026 A 
ATOM     14  C   UNL     1      -9.983   0.034 -48.774  1.00  0.00     0.059 A 
ATOM     15  C   UNL     1     -10.636  -1.006 -48.114  1.00  0.00     0.022 A 
ATOM     16  C   UNL     1     -11.343  -0.752 -46.939  1.00  0.00     0.006 A 
ATOM     17  Cl  UNL     1      -9.247   2.661 -49.030  1.00  0.00    -0.083 Cl
ATOM     18  Cl  UNL     1      -9.124  -0.343 -50.225  1.00  0.00    -0.083 Cl
ENDBRANCH   1  11
BRANCH   3  19
ATOM     19  N   UNL     1     -11.248   3.825 -43.053  1.00  0.00    -0.313 NA
ATOM     20  C   UNL     1     -11.829   5.075 -42.593  1.00  0.00     0.102 C 
ATOM     21  H   UNL     1     -10.378   3.661 -42.547  1.00  0.00     0.122 HD
ENDBRANCH   3  19
TORSDOF 2
ENDMDL
MODEL 2
REMARK VINA RESULT:      -5.0      4.114      6.669
REMARK SMILES CN[C@H]1CC[C@@H](c2ccc(Cl)c(Cl)c2)c2ccccc21
REMARK SMILES IDX 6 1 5 2 3 3 4 4 15 5 20 6 16 7 19 8 17 9 18 10 7 11 12 12
REMARK SMILES IDX 14 13 10 14 9 15 8 16 13 17 11 18 2 19 1 20
REMARK H PARENT 2 21
ROOT
ATOM      1  C   UNL     1     -11.545   2.183 -41.555  1.00  0.00     0.050 C 
ATOM      2  C   UNL     1     -10.321   1.481 -40.931  1.00  0.00     0.015 C 
ATOM      3  C   UNL     1     -10.267  -0.278 -42.735  1.00  0.00     0.084 C 
ATOM      4  C   UNL     1     -10.338  -0.014 -41.226  1.00  0.00     0.025 C 
ATOM      5  C   UNL     1     -11.915   1.668 -42.943  1.00  0.00    -0.036 A 
ATOM      6  C   UNL     1     -11.330   0.503 -43.481  1.00  0.00    -0.027 A 
ATOM      7  C   UNL     1     -12.927   2.316 -43.677  1.00  0.00     0.005 A 
ATOM      8  C   UNL     1     -11.731   0.049 -44.750  1.00  0.00     0.005 A 
ATOM      9  C   UNL     1     -13.316   1.851 -44.934  1.00  0.00     0.000 A 
ATOM     10  C   UNL     1     -12.715   0.722 -45.473  1.00  0.00     0.000 A 
ENDROOT
BRANCH   1  11
ATOM     11  C   UNL     1     -11.341   3.691 -41.481  1.00  0.00    -0.039 A 
ATOM     12  C   UNL     1     -12.082   5.862 -40.745  1.00  0.00     0.059 A 
ATOM     13  C   UNL     1     -12.269   4.482 -40.812  1.00  0.00     0.026 A 
ATOM     14  C   UNL     1     -10.965   6.445 -41.346  1.00  0.00     0.059 A 
ATOM     15  C   UNL     1     -10.038   5.646 -42.015  1.00  0.00     0.022 A 
ATOM     16  C   UNL     1     -10.225   4.266 -42.082  1.00  0.00     0.006 A 
ATOM     17  Cl  UNL     1     -13.266   6.798 -39.901  1.00  0.00    -0.083 Cl
ATOM     18  Cl  UNL     1     -10.678   8.148 -41.297  1.00  0.00    -0.083 Cl
ENDBRANCH   1  11
BRANCH   3  19
ATOM     19  N   UNL     1      -8.931   0.048 -43.247  1.00  0.00    -0.313 NA
ATOM     20  C   UNL     1      -8.456  -0.998 -44.137  1.00  0.00     0.102 C 
ATOM     21  H   UNL     1      -8.982   0.923 -43.768  1.00  0.00     0.122 HD
ENDBRANCH   3  19
TORSDOF 2
ENDMDL
MODEL 3
REMARK VINA RESULT:      -4.8     19.732     21.777
REMARK SMILES CN[C@H]1CC[C@@H](c2ccc(Cl)c(Cl)c2)c2ccccc21
REMARK SMILES IDX 6 1 5 2 3 3 4 4 15 5 20 6 16 7 19 8 17 9 18 10 7 11 12 12
REMARK SMILES IDX 14 13 10 14 9 15 8 16 13 17 11 18 2 19 1 20
REMARK H PARENT 2 21
ROOT
ATOM      1  C   UNL     1     -31.319  10.244 -44.780  1.00  0.00     0.050 C 
ATOM      2  C   UNL     1     -31.729  10.124 -46.263  1.00  0.00     0.015 C 
ATOM      3  C   UNL     1     -29.551  11.108 -47.063  1.00  0.00     0.084 C 
ATOM      4  C   UNL     1     -31.080  11.220 -47.101  1.00  0.00     0.025 C 
ATOM      5  C   UNL     1     -29.855  10.620 -44.570  1.00  0.00    -0.036 A 
ATOM      6  C   UNL     1     -29.038  11.045 -45.639  1.00  0.00    -0.027 A 
ATOM      7  C   UNL     1     -29.320  10.629 -43.267  1.00  0.00     0.005 A 
ATOM      8  C   UNL     1     -27.705  11.415 -45.387  1.00  0.00     0.005 A 
ATOM      9  C   UNL     1     -27.996  11.002 -43.034  1.00  0.00     0.000 A 
ATOM     10  C   UNL     1     -27.187  11.390 -44.093  1.00  0.00     0.000 A 
ENDROOT
BRANCH   1  11
ATOM     11  C   UNL     1     -31.753   8.983 -44.044  1.00  0.00    -0.039 A 
ATOM     12  C   UNL     1     -31.741   6.583 -43.834  1.00  0.00     0.059 A 
ATOM     13  C   UNL     1     -31.344   7.737 -44.509  1.00  0.00     0.026 A 
ATOM     14  C   UNL     1     -32.545   6.681 -42.697  1.00  0.00     0.059 A 
ATOM     15  C   UNL     1     -32.951   7.933 -42.237  1.00  0.00     0.022 A 
ATOM     16  C   UNL     1     -32.554   9.087 -42.912  1.00  0.00     0.006 A 
ATOM     17  Cl  UNL     1     -31.204   5.060 -44.453  1.00  0.00    -0.083 Cl
ATOM     18  Cl  UNL     1     -33.070   5.288 -41.819  1.00  0.00    -0.083 Cl
ENDBRANCH   1  11
BRANCH   3  19
ATOM     19  N   UNL     1     -29.107   9.935 -47.825  1.00  0.00    -0.313 NA
ATOM     20  C   UNL     1     -28.810  10.301 -49.200  1.00  0.00     0.102 C 
ATOM     21  H   UNL     1     -28.261   9.564 -47.394  1.00  0.00     0.122 HD
ENDBRANCH   3  19
TORSDOF 2
ENDMDL
