MODEL 1
REMARK VINA RESULT:      -5.0      0.000      0.000
REMARK SMILES CCC(C)(C)C(=O)O[C@H]1C[C@@H](C)C=C2C=C[C@H](C)[C@H](CC[C@@H]3C[C@@H](O)CC(=O)O3)[C@H]21
REMARK SMILES IDX 30 1 19 2 9 3 17 4 14 5 10 6 11 7 13 8 16 9 15 10 18 11
REMARK SMILES IDX 12 12 8 13 6 14 7 15 3 16 4 17 5 18 2 19 1 20 20 21 21 22
REMARK SMILES IDX 22 23 29 24 23 25 27 26 24 27 28 28 26 29 25 30
REMARK H PARENT 25 31
ROOT
ATOM      1  C   UNL     1     -26.134   8.465 -53.410  1.00  0.00     0.063 C 
ATOM      2  C   UNL     1     -24.765   7.759 -53.649  1.00  0.00     0.007 C 
ATOM      3  C   UNL     1     -27.306   7.801 -54.169  1.00  0.00     0.185 C 
ATOM      4  C   UNL     1     -23.619   8.479 -52.878  1.00  0.00     0.012 C 
ATOM      5  C   UNL     1     -26.425   8.589 -51.917  1.00  0.00    -0.045 C 
ATOM      6  C   UNL     1     -28.650   8.404 -53.752  1.00  0.00     0.053 C 
ATOM      7  C   UNL     1     -28.916   8.318 -52.239  1.00  0.00     0.012 C 
ATOM      8  C   UNL     1     -27.671   8.520 -51.415  1.00  0.00    -0.020 C 
ATOM      9  C   UNL     1     -24.020   8.766 -51.455  1.00  0.00    -0.023 C 
ATOM     10  C   UNL     1     -25.291   8.796 -51.034  1.00  0.00    -0.000 C 
ATOM     11  C   UNL     1     -23.131   9.776 -53.530  1.00  0.00     0.012 C 
ATOM     12  C   UNL     1     -29.594   7.003 -51.844  1.00  0.00     0.012 C 
ENDROOT
BRANCH   3  13
ATOM     13  O   UNL     1     -27.306   6.393 -53.951  1.00  0.00    -0.461 OA
BRANCH  13  14
ATOM     14  C   UNL     1     -27.690   5.620 -55.014  1.00  0.00     0.311 C 
ATOM     15  O   UNL     1     -28.029   6.057 -56.108  1.00  0.00    -0.252 OA
BRANCH  14  16
ATOM     16  C   UNL     1     -27.647   4.131 -54.651  1.00  0.00     0.062 C 
ATOM     17  C   UNL     1     -29.068   3.643 -54.314  1.00  0.00     0.023 C 
ATOM     18  C   UNL     1     -26.775   3.966 -53.393  1.00  0.00     0.023 C 
BRANCH  16  19
ATOM     19  C   UNL     1     -27.039   3.298 -55.806  1.00  0.00     0.015 C 
ATOM     20  C   UNL     1     -26.259   2.063 -55.367  1.00  0.00     0.005 C 
ENDBRANCH  16  19
ENDBRANCH  14  16
ENDBRANCH  13  14
ENDBRANCH   3  13
BRANCH   2  21
ATOM     21  C   UNL     1     -24.432   7.594 -55.135  1.00  0.00     0.009 C 
BRANCH  21  22
ATOM     22  C   UNL     1     -24.391   6.123 -55.526  1.00  0.00     0.046 C 
BRANCH  22  23
ATOM     23  C   UNL     1     -23.119   5.456 -55.015  1.00  0.00     0.179 C 
ATOM     24  O   UNL     1     -23.509   4.235 -54.349  1.00  0.00    -0.462 OA
ATOM     25  C   UNL     1     -22.136   5.208 -56.149  1.00  0.00     0.077 C 
ATOM     26  C   UNL     1     -22.641   3.224 -54.111  1.00  0.00     0.308 C 
ATOM     27  C   UNL     1     -20.957   4.410 -55.624  1.00  0.00     0.129 C 
ATOM     28  O   UNL     1     -22.882   2.366 -53.265  1.00  0.00    -0.252 OA
ATOM     29  C   UNL     1     -21.438   3.107 -55.016  1.00  0.00     0.154 C 
BRANCH  27  30
ATOM     30  O   UNL     1     -20.248   5.150 -54.634  1.00  0.00    -0.392 OA
ATOM     31  H   UNL     1     -20.870   5.789 -54.246  1.00  0.00     0.210 HD
ENDBRANCH  27  30
ENDBRANCH  22  23
ENDBRANCH  21  22
ENDBRANCH   2  21
TORSDOF 8
ENDMDL
MODEL 2
REMARK VINA RESULT:      -4.8      2.028      6.982
REMARK SMILES CCC(C)(C)C(=O)O[C@H]1C[C@@H](C)C=C2C=C[C@H](C)[C@H](CC[C@@H]3C[C@@H](O)CC(=O)O3)[C@H]21
REMARK SMILES IDX 30 1 19 2 9 3 17 4 14 5 10 6 11 7 13 8 16 9 15 10 18 11
REMARK SMILES IDX 12 12 8 13 6 14 7 15 3 16 4 17 5 18 2 19 1 20 20 21 21 22
REMARK SMILES IDX 22 23 29 24 23 25 27 26 24 27 28 28 26 29 25 30
REMARK H PARENT 25 31
ROOT
ATOM      1  C   UNL     1     -24.471   5.125 -55.191  1.00  0.00     0.063 C 
ATOM      2  C   UNL     1     -25.387   4.796 -53.975  1.00  0.00     0.007 C 
ATOM      3  C   UNL     1     -24.326   6.641 -55.457  1.00  0.00     0.185 C 
ATOM      4  C   UNL     1     -25.513   3.258 -53.765  1.00  0.00     0.012 C 
ATOM      5  C   UNL     1     -23.113   4.444 -55.046  1.00  0.00    -0.045 C 
ATOM      6  C   UNL     1     -23.270   6.919 -56.530  1.00  0.00     0.053 C 
ATOM      7  C   UNL     1     -21.887   6.331 -56.194  1.00  0.00     0.012 C 
ATOM      8  C   UNL     1     -21.974   4.999 -55.498  1.00  0.00    -0.020 C 
ATOM      9  C   UNL     1     -24.165   2.590 -53.827  1.00  0.00    -0.023 C 
ATOM     10  C   UNL     1     -23.087   3.147 -54.395  1.00  0.00    -0.000 C 
ATOM     11  C   UNL     1     -26.462   2.559 -54.744  1.00  0.00     0.012 C 
ATOM     12  C   UNL     1     -21.034   7.297 -55.368  1.00  0.00     0.012 C 
ENDROOT
BRANCH   3  13
ATOM     13  O   UNL     1     -24.000   7.328 -54.252  1.00  0.00    -0.461 OA
BRANCH  13  14
ATOM     14  C   UNL     1     -24.651   8.515 -54.042  1.00  0.00     0.311 C 
ATOM     15  O   UNL     1     -25.350   9.084 -54.872  1.00  0.00    -0.252 OA
BRANCH  14  16
ATOM     16  C   UNL     1     -24.382   9.043 -52.627  1.00  0.00     0.062 C 
ATOM     17  C   UNL     1     -25.196  10.328 -52.395  1.00  0.00     0.023 C 
ATOM     18  C   UNL     1     -22.887   9.398 -52.521  1.00  0.00     0.023 C 
BRANCH  16  19
ATOM     19  C   UNL     1     -24.729   7.972 -51.563  1.00  0.00     0.015 C 
ATOM     20  C   UNL     1     -24.971   8.517 -50.159  1.00  0.00     0.005 C 
ENDBRANCH  16  19
ENDBRANCH  14  16
ENDBRANCH  13  14
ENDBRANCH   3  13
BRANCH   2  21
ATOM     21  C   UNL     1     -26.760   5.470 -54.064  1.00  0.00     0.009 C 
BRANCH  21  22
ATOM     22  C   UNL     1     -27.337   5.720 -52.677  1.00  0.00     0.046 C 
BRANCH  22  23
ATOM     23  C   UNL     1     -28.360   6.849 -52.704  1.00  0.00     0.179 C 
ATOM     24  O   UNL     1     -28.097   7.700 -51.568  1.00  0.00    -0.462 OA
ATOM     25  C   UNL     1     -28.305   7.608 -54.021  1.00  0.00     0.077 C 
ATOM     26  C   UNL     1     -28.551   8.972 -51.487  1.00  0.00     0.308 C 
ATOM     27  C   UNL     1     -29.228   8.810 -53.946  1.00  0.00     0.129 C 
ATOM     28  O   UNL     1     -28.620   9.554 -50.407  1.00  0.00    -0.252 OA
ATOM     29  C   UNL     1     -28.837   9.696 -52.781  1.00  0.00     0.154 C 
BRANCH  27  30
ATOM     30  O   UNL     1     -30.581   8.396 -53.779  1.00  0.00    -0.392 OA
ATOM     31  H   UNL     1     -30.858   7.961 -54.604  1.00  0.00     0.210 HD
ENDBRANCH  27  30
ENDBRANCH  22  23
ENDBRANCH  21  22
ENDBRANCH   2  21
TORSDOF 8
ENDMDL
MODEL 3
REMARK VINA RESULT:      -4.7      2.402      5.813
REMARK SMILES CCC(C)(C)C(=O)O[C@H]1C[C@@H](C)C=C2C=C[C@H](C)[C@H](CC[C@@H]3C[C@@H](O)CC(=O)O3)[C@H]21
REMARK SMILES IDX 30 1 19 2 9 3 17 4 14 5 10 6 11 7 13 8 16 9 15 10 18 11
REMARK SMILES IDX 12 12 8 13 6 14 7 15 3 16 4 17 5 18 2 19 1 20 20 21 21 22
REMARK SMILES IDX 22 23 29 24 23 25 27 26 24 27 28 28 26 29 25 30
REMARK H PARENT 25 31
ROOT
ATOM      1  C   UNL     1     -26.983   6.347 -54.301  1.00  0.00     0.063 C 
ATOM      2  C   UNL     1     -26.359   7.091 -53.083  1.00  0.00     0.007 C 
ATOM      3  C   UNL     1     -25.933   5.661 -55.205  1.00  0.00     0.185 C 
ATOM      4  C   UNL     1     -27.457   7.778 -52.219  1.00  0.00     0.012 C 
ATOM      5  C   UNL     1     -28.060   5.367 -53.842  1.00  0.00    -0.045 C 
ATOM      6  C   UNL     1     -26.602   4.786 -56.269  1.00  0.00     0.053 C 
ATOM      7  C   UNL     1     -27.537   3.715 -55.680  1.00  0.00     0.012 C 
ATOM      8  C   UNL     1     -28.290   4.199 -54.469  1.00  0.00    -0.020 C 
ATOM      9  C   UNL     1     -28.603   6.838 -51.952  1.00  0.00    -0.023 C 
ATOM     10  C   UNL     1     -28.852   5.744 -52.685  1.00  0.00    -0.000 C 
ATOM     11  C   UNL     1     -28.007   9.080 -52.808  1.00  0.00     0.012 C 
ATOM     12  C   UNL     1     -26.793   2.418 -55.347  1.00  0.00     0.012 C 
ENDROOT
BRANCH   3  13
ATOM     13  O   UNL     1     -25.033   4.885 -54.420  1.00  0.00    -0.461 OA
BRANCH  13  14
ATOM     14  C   UNL     1     -23.723   4.896 -54.822  1.00  0.00     0.311 C 
ATOM     15  O   UNL     1     -23.112   5.895 -55.184  1.00  0.00    -0.252 OA
BRANCH  14  16
ATOM     16  C   UNL     1     -23.122   3.486 -54.765  1.00  0.00     0.062 C 
ATOM     17  C   UNL     1     -23.444   2.738 -56.071  1.00  0.00     0.023 C 
ATOM     18  C   UNL     1     -23.786   2.725 -53.603  1.00  0.00     0.023 C 
BRANCH  16  19
ATOM     19  C   UNL     1     -21.593   3.547 -54.528  1.00  0.00     0.015 C 
ATOM     20  C   UNL     1     -20.741   3.099 -55.711  1.00  0.00     0.005 C 
ENDBRANCH  16  19
ENDBRANCH  14  16
ENDBRANCH  13  14
ENDBRANCH   3  13
BRANCH   2  21
ATOM     21  C   UNL     1     -25.258   8.076 -53.488  1.00  0.00     0.009 C 
BRANCH  21  22
ATOM     22  C   UNL     1     -24.057   7.967 -52.558  1.00  0.00     0.046 C 
BRANCH  22  23
ATOM     23  C   UNL     1     -24.086   9.059 -51.496  1.00  0.00     0.179 C 
ATOM     24  O   UNL     1     -24.769  10.198 -52.064  1.00  0.00    -0.462 OA
ATOM     25  C   UNL     1     -24.748   8.565 -50.219  1.00  0.00     0.077 C 
ATOM     26  C   UNL     1     -25.301  11.184 -51.305  1.00  0.00     0.308 C 
ATOM     27  C   UNL     1     -24.892   9.723 -49.248  1.00  0.00     0.129 C 
ATOM     28  O   UNL     1     -25.563  12.284 -51.785  1.00  0.00    -0.252 OA
ATOM     29  C   UNL     1     -25.689  10.842 -49.886  1.00  0.00     0.154 C 
BRANCH  27  30
ATOM     30  O   UNL     1     -23.613  10.223 -48.868  1.00  0.00    -0.392 OA
ATOM     31  H   UNL     1     -23.753  11.072 -48.416  1.00  0.00     0.210 HD
ENDBRANCH  27  30
ENDBRANCH  22  23
ENDBRANCH  21  22
ENDBRANCH   2  21
TORSDOF 8
ENDMDL
