MODEL 1
REMARK VINA RESULT:      -5.3      0.000      0.000
REMARK SMILES O=c1[nH]cnc2[nH]ncc12
REMARK SMILES IDX 1 1 7 2 3 3 5 4 8 5 10 6 6 7 2 8 9 9 4 10
REMARK H PARENT 7 11 3 12
ROOT
ATOM      1  O   UNL     1      17.201   0.561  18.160  1.00  0.00    -0.269 OA
ATOM      2  N   UNL     1      16.613  -0.018  13.699  1.00  0.00    -0.261 N 
ATOM      3  N   UNL     1      17.085  -1.604  17.302  1.00  0.00    -0.312 N 
ATOM      4  N   UNL     1      16.775  -2.066  14.965  1.00  0.00    -0.219 NA
ATOM      5  N   UNL     1      16.639   1.319  13.872  1.00  0.00    -0.181 NA
ATOM      6  C   UNL     1      16.897   0.227  15.850  1.00  0.00     0.104 A 
ATOM      7  C   UNL     1      16.764  -0.716  14.857  1.00  0.00     0.162 A 
ATOM      8  C   UNL     1      17.076  -0.207  17.214  1.00  0.00     0.261 A 
ATOM      9  C   UNL     1      16.813   1.462  15.193  1.00  0.00     0.151 A 
ATOM     10  C   UNL     1      16.937  -2.449  16.198  1.00  0.00     0.202 A 
ATOM     11  H   UNL     1      16.489  -0.381  12.761  1.00  0.00     0.192 HD
ATOM     12  H   UNL     1      17.205  -2.024  18.220  1.00  0.00     0.171 HD
ENDROOT
TORSDOF 0
ENDMDL
MODEL 2
REMARK VINA RESULT:      -5.3      3.271      3.681
REMARK SMILES O=c1[nH]cnc2[nH]ncc12
REMARK SMILES IDX 1 1 7 2 3 3 5 4 8 5 10 6 6 7 2 8 9 9 4 10
REMARK H PARENT 7 11 3 12
ROOT
ATOM      1  O   UNL     1      20.043  -1.413  13.748  1.00  0.00    -0.269 OA
ATOM      2  N   UNL     1      19.347   1.376  17.258  1.00  0.00    -0.261 N 
ATOM      3  N   UNL     1      18.173  -1.738  15.102  1.00  0.00    -0.312 N 
ATOM      4  N   UNL     1      17.676  -0.344  16.995  1.00  0.00    -0.219 NA
ATOM      5  N   UNL     1      20.485   1.820  16.685  1.00  0.00    -0.181 NA
ATOM      6  C   UNL     1      19.654   0.017  15.576  1.00  0.00     0.104 A 
ATOM      7  C   UNL     1      18.811   0.296  16.627  1.00  0.00     0.162 A 
ATOM      8  C   UNL     1      19.350  -1.091  14.705  1.00  0.00     0.261 A 
ATOM      9  C   UNL     1      20.667   0.983  15.655  1.00  0.00     0.151 A 
ATOM     10  C   UNL     1      17.409  -1.342  16.205  1.00  0.00     0.202 A 
ATOM     11  H   UNL     1      18.998   1.862  18.075  1.00  0.00     0.192 HD
ATOM     12  H   UNL     1      17.861  -2.537  14.559  1.00  0.00     0.171 HD
ENDROOT
TORSDOF 0
ENDMDL
MODEL 3
REMARK VINA RESULT:      -5.3      2.550      2.635
REMARK SMILES O=c1[nH]cnc2[nH]ncc12
REMARK SMILES IDX 1 1 7 2 3 3 5 4 8 5 10 6 6 7 2 8 9 9 4 10
REMARK H PARENT 7 11 3 12
ROOT
ATOM      1  O   UNL     1      16.954   0.558  18.246  1.00  0.00    -0.269 OA
ATOM      2  N   UNL     1      20.400   0.596  15.296  1.00  0.00    -0.261 N 
ATOM      3  N   UNL     1      16.988  -1.009  16.520  1.00  0.00    -0.312 N 
ATOM      4  N   UNL     1      18.744  -1.110  14.884  1.00  0.00    -0.219 NA
ATOM      5  N   UNL     1      20.670   1.602  16.153  1.00  0.00    -0.181 NA
ATOM      6  C   UNL     1      18.728   0.551  16.699  1.00  0.00     0.104 A 
ATOM      7  C   UNL     1      19.245  -0.064  15.583  1.00  0.00     0.162 A 
ATOM      8  C   UNL     1      17.488   0.071  17.256  1.00  0.00     0.261 A 
ATOM      9  C   UNL     1      19.641   1.568  17.011  1.00  0.00     0.151 A 
ATOM     10  C   UNL     1      17.625  -1.537  15.392  1.00  0.00     0.202 A 
ATOM     11  H   UNL     1      21.051   0.419  14.539  1.00  0.00     0.192 HD
ATOM     12  H   UNL     1      16.114  -1.430  16.823  1.00  0.00     0.171 HD
ENDROOT
TORSDOF 0
ENDMDL
