135401907
  -OEChem-12212523573D

 14 15  0     0  0  0  0  0  0999 V2000
    1.6437   -2.0319   -0.0007 O   0  0  0  0  0  0  0  0  0  0  0  0
   -1.9322    0.7603   -0.0002 N   0  0  0  0  0  0  0  0  0  0  0  0
    2.0030    0.2723    0.0006 N   0  0  0  0  0  0  0  0  0  0  0  0
    0.2101    1.8715   -0.0004 N   0  0  0  0  0  0  0  0  0  0  0  0
   -2.4627   -0.4802    0.0002 N   0  0  0  0  0  0  0  0  0  0  0  0
   -0.1901   -0.5573    0.0001 C   0  0  0  0  0  0  0  0  0  0  0  0
   -0.5707    0.7649   -0.0002 C   0  0  0  0  0  0  0  0  0  0  0  0
    1.2136   -0.8849    0.0003 C   0  0  0  0  0  0  0  0  0  0  0  0
   -1.3898   -1.2815    0.0002 C   0  0  0  0  0  0  0  0  0  0  0  0
    1.4750    1.5668    0.0000 C   0  0  0  0  0  0  0  0  0  0  0  0
   -1.5382   -2.3518    0.0004 H   0  0  0  0  0  0  0  0  0  0  0  0
   -2.5613    1.5535   -0.0003 H   0  0  0  0  0  0  0  0  0  0  0  0
    3.0129    0.1614    0.0008 H   0  0  0  0  0  0  0  0  0  0  0  0
    2.2545    2.3445    0.0000 H   0  0  0  0  0  0  0  0  0  0  0  0
  1  8  2  0  0  0  0
  2  5  1  0  0  0  0
  2  7  1  0  0  0  0
  2 12  1  0  0  0  0
  3  8  1  0  0  0  0
  3 10  1  0  0  0  0
  3 13  1  0  0  0  0
  4  7  1  0  0  0  0
  4 10  2  0  0  0  0
  5  9  2  0  0  0  0
  6  7  2  0  0  0  0
  6  8  1  0  0  0  0
  6  9  1  0  0  0  0
  9 11  1  0  0  0  0
 10 14  1  0  0  0  0
M  END
> <PUBCHEM_COMPOUND_CID>
135401907

> <PUBCHEM_CONFORMER_RMSD>
0.4

> <PUBCHEM_CONFORMER_DIVERSEORDER>
1

> <PUBCHEM_MMFF94_PARTIAL_CHARGES>
14
1 -0.57
10 0.45
11 0.15
12 0.27
13 0.37
14 0.06
2 0.3
3 -0.49
4 -0.58
5 -0.71
6 -0.09
7 -0.03
8 0.72
9 0.14

> <PUBCHEM_EFFECTIVE_ROTOR_COUNT>
0

> <PUBCHEM_PHARMACOPHORE_FEATURES>
6
1 1 acceptor
1 2 donor
1 3 donor
1 5 acceptor
5 2 5 6 7 9 rings
6 3 4 6 7 8 10 rings

> <PUBCHEM_HEAVY_ATOM_COUNT>
10

> <PUBCHEM_ATOM_DEF_STEREO_COUNT>
0

> <PUBCHEM_ATOM_UDEF_STEREO_COUNT>
0

> <PUBCHEM_BOND_DEF_STEREO_COUNT>
0

> <PUBCHEM_BOND_UDEF_STEREO_COUNT>
0

> <PUBCHEM_ISOTOPIC_ATOM_COUNT>
0

> <PUBCHEM_COMPONENT_COUNT>
1

> <PUBCHEM_CACTVS_TAUTO_COUNT>
-1

> <PUBCHEM_CONFORMER_ID>
081211B300000001

> <PUBCHEM_MMFF94_ENERGY>
16.331

> <PUBCHEM_FEATURE_SELFOVERLAP>
30.566

> <PUBCHEM_SHAPE_FINGERPRINT>
16945 1 18410574032533312901
18185500 45 18411981364367024926
21040471 1 17690280834167403396
23552423 10 18334581230460688342
241688 4 18121781621224552776
2748010 2 18266456503573608863
29004967 10 18408045134219607339
5084963 1 17842004578193068208

> <PUBCHEM_SHAPE_MULTIPOLES>
180
2.68
1.94
0.57
0.74
0.21
0
0.1
0
-0.75
0
0
0
0

> <PUBCHEM_SHAPE_SELFOVERLAP>
398.937

> <PUBCHEM_SHAPE_VOLUME>
94.9

> <PUBCHEM_COORDINATE_TYPE>
2
5
10

$$$$
