MODEL 1
REMARK VINA RESULT:      -3.7      0.000      0.000
REMARK SMILES O=c1[nH]cnc2[nH]ncc12
REMARK SMILES IDX 1 1 7 2 3 3 5 4 8 5 10 6 6 7 2 8 9 9 4 10
REMARK H PARENT 7 11 3 12
ROOT
ATOM      1  O   UNL     1     -31.238   8.587 -43.869  1.00  0.00    -0.269 OA
ATOM      2  N   UNL     1     -32.869   5.425 -41.054  1.00  0.00    -0.261 N 
ATOM      3  N   UNL     1     -31.411   6.384 -44.614  1.00  0.00    -0.312 N 
ATOM      4  N   UNL     1     -32.254   4.604 -43.238  1.00  0.00    -0.219 NA
ATOM      5  N   UNL     1     -32.896   6.570 -40.340  1.00  0.00    -0.181 NA
ATOM      6  C   UNL     1     -32.080   6.923 -42.433  1.00  0.00     0.104 A 
ATOM      7  C   UNL     1     -32.387   5.587 -42.316  1.00  0.00     0.162 A 
ATOM      8  C   UNL     1     -31.540   7.415 -43.676  1.00  0.00     0.261 A 
ATOM      9  C   UNL     1     -32.412   7.483 -41.191  1.00  0.00     0.151 A 
ATOM     10  C   UNL     1     -31.766   5.056 -44.356  1.00  0.00     0.202 A 
ATOM     11  H   UNL     1     -33.195   4.574 -40.613  1.00  0.00     0.192 HD
ATOM     12  H   UNL     1     -31.039   6.616 -45.531  1.00  0.00     0.171 HD
ENDROOT
TORSDOF 0
ENDMDL
MODEL 2
REMARK VINA RESULT:      -3.6     12.908     14.341
REMARK SMILES O=c1[nH]cnc2[nH]ncc12
REMARK SMILES IDX 1 1 7 2 3 3 5 4 8 5 10 6 6 7 2 8 9 9 4 10
REMARK H PARENT 7 11 3 12
ROOT
ATOM      1  O   UNL     1     -23.596   2.307 -53.580  1.00  0.00    -0.269 OA
ATOM      2  N   UNL     1     -27.711   3.430 -55.126  1.00  0.00    -0.261 N 
ATOM      3  N   UNL     1     -24.476   1.154 -55.406  1.00  0.00    -0.312 N 
ATOM      4  N   UNL     1     -26.640   1.635 -56.332  1.00  0.00    -0.219 NA
ATOM      5  N   UNL     1     -27.493   4.264 -54.089  1.00  0.00    -0.181 NA
ATOM      6  C   UNL     1     -25.728   2.866 -54.407  1.00  0.00     0.104 A 
ATOM      7  C   UNL     1     -26.679   2.572 -55.356  1.00  0.00     0.162 A 
ATOM      8  C   UNL     1     -24.497   2.116 -54.388  1.00  0.00     0.261 A 
ATOM      9  C   UNL     1     -26.276   3.913 -53.652  1.00  0.00     0.151 A 
ATOM     10  C   UNL     1     -25.526   0.963 -56.309  1.00  0.00     0.202 A 
ATOM     11  H   UNL     1     -28.586   3.505 -55.630  1.00  0.00     0.192 HD
ATOM     12  H   UNL     1     -23.653   0.563 -55.488  1.00  0.00     0.171 HD
ENDROOT
TORSDOF 0
ENDMDL
MODEL 3
REMARK VINA RESULT:      -3.5      1.979      3.033
REMARK SMILES O=c1[nH]cnc2[nH]ncc12
REMARK SMILES IDX 1 1 7 2 3 3 5 4 8 5 10 6 6 7 2 8 9 9 4 10
REMARK H PARENT 7 11 3 12
ROOT
ATOM      1  O   UNL     1     -31.428   7.657 -40.652  1.00  0.00    -0.269 OA
ATOM      2  N   UNL     1     -32.108   5.466 -44.565  1.00  0.00    -0.261 N 
ATOM      3  N   UNL     1     -31.196   8.820 -42.659  1.00  0.00    -0.312 N 
ATOM      4  N   UNL     1     -31.523   7.794 -44.806  1.00  0.00    -0.219 NA
ATOM      5  N   UNL     1     -32.315   4.536 -43.610  1.00  0.00    -0.181 NA
ATOM      6  C   UNL     1     -31.774   6.549 -42.699  1.00  0.00     0.104 A 
ATOM      7  C   UNL     1     -31.781   6.689 -44.067  1.00  0.00     0.162 A 
ATOM      8  C   UNL     1     -31.458   7.690 -41.876  1.00  0.00     0.261 A 
ATOM      9  C   UNL     1     -32.109   5.207 -42.469  1.00  0.00     0.151 A 
ATOM     10  C   UNL     1     -31.239   8.819 -44.057  1.00  0.00     0.202 A 
ATOM     11  H   UNL     1     -32.208   5.191 -45.535  1.00  0.00     0.192 HD
ATOM     12  H   UNL     1     -30.960   9.687 -42.183  1.00  0.00     0.171 HD
ENDROOT
TORSDOF 0
ENDMDL
