MODEL 1
REMARK VINA RESULT:      -4.2      0.000      0.000
REMARK SMILES CCCCc1oc2ccccc2c1C(=O)c1cc(I)c(OCCN(CC)CC)c(I)c1
REMARK SMILES IDX 19 1 30 2 16 3 20 4 17 5 31 6 18 7 29 8 21 9 22 10 23 11
REMARK SMILES IDX 24 12 25 13 26 14 27 15 28 16 14 17 15 18 13 19 5 20 12 21
REMARK SMILES IDX 6 22 7 23 11 24 8 25 10 26 9 27 4 28 3 29 2 30 1 31
REMARK H PARENT
ROOT
ATOM      1  I   UNL     1     -22.924   9.658 -52.047  1.00  0.00    -0.040 I 
ATOM      2  I   UNL     1     -28.711   7.720 -52.076  1.00  0.00    -0.040 I 
ATOM      3  C   UNL     1     -25.143   6.705 -54.321  1.00  0.00     0.025 A 
ATOM      4  C   UNL     1     -25.754   8.501 -52.277  1.00  0.00     0.146 A 
ATOM      5  C   UNL     1     -24.150   7.537 -53.803  1.00  0.00     0.031 A 
ATOM      6  C   UNL     1     -26.441   6.770 -53.816  1.00  0.00     0.031 A 
ATOM      7  C   UNL     1     -24.456   8.436 -52.782  1.00  0.00     0.057 A 
ATOM      8  C   UNL     1     -26.747   7.670 -52.793  1.00  0.00     0.057 A 
ENDROOT
BRANCH   4   9
ATOM      9  O   UNL     1     -26.055   9.382 -51.276  1.00  0.00    -0.490 OA
BRANCH   9  10
ATOM     10  C   UNL     1     -25.990   8.889 -49.942  1.00  0.00     0.245 C 
BRANCH  10  11
ATOM     11  C   UNL     1     -26.034  10.067 -48.982  1.00  0.00     0.126 C 
BRANCH  11  12
ATOM     12  N   UNL     1     -27.253  10.037 -48.188  1.00  0.00    -0.301 NA
BRANCH  12  13
ATOM     13  C   UNL     1     -27.056  10.730 -46.911  1.00  0.00     0.081 C 
ATOM     14  C   UNL     1     -26.403  12.086 -47.118  1.00  0.00     0.021 C 
ENDBRANCH  12  13
BRANCH  12  15
ATOM     15  C   UNL     1     -28.367  10.639 -48.924  1.00  0.00     0.081 C 
ATOM     16  C   UNL     1     -29.681  10.448 -48.186  1.00  0.00     0.021 C 
ENDBRANCH  12  15
ENDBRANCH  11  12
ENDBRANCH  10  11
ENDBRANCH   9  10
ENDBRANCH   4   9
BRANCH   3  17
ATOM     17  C   UNL     1     -24.815   5.742 -55.418  1.00  0.00     0.197 C 
ATOM     18  O   UNL     1     -25.407   5.937 -56.495  1.00  0.00    -0.288 OA
BRANCH  17  19
ATOM     19  C   UNL     1     -23.870   4.683 -55.214  1.00  0.00     0.072 A 
ATOM     20  C   UNL     1     -24.103   3.543 -54.480  1.00  0.00     0.116 A 
ATOM     21  C   UNL     1     -22.542   4.578 -55.706  1.00  0.00     0.032 A 
ATOM     22  O   UNL     1     -23.008   2.737 -54.482  1.00  0.00    -0.460 OA
ATOM     23  C   UNL     1     -22.056   3.366 -55.228  1.00  0.00     0.135 A 
ATOM     24  C   UNL     1     -21.697   5.373 -56.500  1.00  0.00     0.013 A 
ATOM     25  C   UNL     1     -20.776   2.880 -55.485  1.00  0.00     0.048 A 
ATOM     26  C   UNL     1     -20.403   4.912 -56.777  1.00  0.00     0.001 A 
ATOM     27  C   UNL     1     -19.952   3.687 -56.277  1.00  0.00     0.004 A 
BRANCH  20  28
ATOM     28  C   UNL     1     -25.262   3.049 -53.722  1.00  0.00     0.076 C 
BRANCH  28  29
ATOM     29  C   UNL     1     -26.419   2.584 -54.634  1.00  0.00     0.008 C 
BRANCH  29  30
ATOM     30  C   UNL     1     -27.771   3.154 -54.202  1.00  0.00    -0.003 C 
ATOM     31  C   UNL     1     -28.325   4.121 -55.236  1.00  0.00     0.004 C 
ENDBRANCH  29  30
ENDBRANCH  28  29
ENDBRANCH  20  28
ENDBRANCH  17  19
ENDBRANCH   3  17
TORSDOF 11
ENDMDL
MODEL 2
REMARK VINA RESULT:      -4.2      3.212      7.959
REMARK SMILES CCCCc1oc2ccccc2c1C(=O)c1cc(I)c(OCCN(CC)CC)c(I)c1
REMARK SMILES IDX 19 1 30 2 16 3 20 4 17 5 31 6 18 7 29 8 21 9 22 10 23 11
REMARK SMILES IDX 24 12 25 13 26 14 27 15 28 16 14 17 15 18 13 19 5 20 12 21
REMARK SMILES IDX 6 22 7 23 11 24 8 25 10 26 9 27 4 28 3 29 2 30 1 31
REMARK H PARENT
ROOT
ATOM      1  I   UNL     1     -27.477   7.753 -57.509  1.00  0.00    -0.040 I 
ATOM      2  I   UNL     1     -26.766   2.960 -53.798  1.00  0.00    -0.040 I 
ATOM      3  C   UNL     1     -28.153   7.037 -53.285  1.00  0.00     0.025 A 
ATOM      4  C   UNL     1     -27.218   5.516 -55.429  1.00  0.00     0.146 A 
ATOM      5  C   UNL     1     -28.061   7.605 -54.556  1.00  0.00     0.031 A 
ATOM      6  C   UNL     1     -27.779   5.708 -53.087  1.00  0.00     0.031 A 
ATOM      7  C   UNL     1     -27.593   6.845 -55.628  1.00  0.00     0.057 A 
ATOM      8  C   UNL     1     -27.311   4.948 -54.159  1.00  0.00     0.057 A 
ENDROOT
BRANCH   4   9
ATOM      9  O   UNL     1     -26.759   4.771 -56.478  1.00  0.00    -0.490 OA
BRANCH   9  10
ATOM     10  C   UNL     1     -25.478   5.110 -56.998  1.00  0.00     0.245 C 
BRANCH  10  11
ATOM     11  C   UNL     1     -24.414   4.383 -56.192  1.00  0.00     0.126 C 
BRANCH  11  12
ATOM     12  N   UNL     1     -23.445   5.324 -55.652  1.00  0.00    -0.301 NA
BRANCH  12  13
ATOM     13  C   UNL     1     -23.716   5.593 -54.237  1.00  0.00     0.081 C 
ATOM     14  C   UNL     1     -24.164   7.029 -54.028  1.00  0.00     0.021 C 
ENDBRANCH  12  13
BRANCH  12  15
ATOM     15  C   UNL     1     -22.081   4.817 -55.819  1.00  0.00     0.081 C 
ATOM     16  C   UNL     1     -21.855   3.563 -54.992  1.00  0.00     0.021 C 
ENDBRANCH  12  15
ENDBRANCH  11  12
ENDBRANCH  10  11
ENDBRANCH   9  10
ENDBRANCH   4   9
BRANCH   3  17
ATOM     17  C   UNL     1     -28.654   7.852 -52.136  1.00  0.00     0.197 C 
ATOM     18  O   UNL     1     -29.738   7.483 -51.650  1.00  0.00    -0.288 OA
BRANCH  17  19
ATOM     19  C   UNL     1     -27.906   8.972 -51.641  1.00  0.00     0.072 A 
ATOM     20  C   UNL     1     -28.236  10.293 -51.834  1.00  0.00     0.116 A 
ATOM     21  C   UNL     1     -26.710   8.966 -50.875  1.00  0.00     0.032 A 
ATOM     22  O   UNL     1     -27.327  11.109 -51.239  1.00  0.00    -0.460 OA
ATOM     23  C   UNL     1     -26.396  10.302 -50.654  1.00  0.00     0.135 A 
ATOM     24  C   UNL     1     -25.860   7.980 -50.344  1.00  0.00     0.013 A 
ATOM     25  C   UNL     1     -25.283  10.736 -49.936  1.00  0.00     0.048 A 
ATOM     26  C   UNL     1     -24.732   8.385 -49.617  1.00  0.00     0.001 A 
ATOM     27  C   UNL     1     -24.451   9.738 -49.417  1.00  0.00     0.004 A 
BRANCH  20  28
ATOM     28  C   UNL     1     -29.340  10.966 -52.535  1.00  0.00     0.076 C 
BRANCH  28  29
ATOM     29  C   UNL     1     -29.166  10.960 -54.070  1.00  0.00     0.008 C 
BRANCH  29  30
ATOM     30  C   UNL     1     -30.485  10.730 -54.809  1.00  0.00    -0.003 C 
ATOM     31  C   UNL     1     -31.203   9.492 -54.296  1.00  0.00     0.004 C 
ENDBRANCH  29  30
ENDBRANCH  28  29
ENDBRANCH  20  28
ENDBRANCH  17  19
ENDBRANCH   3  17
TORSDOF 11
ENDMDL
MODEL 3
REMARK VINA RESULT:      -4.2      0.979      2.265
REMARK SMILES CCCCc1oc2ccccc2c1C(=O)c1cc(I)c(OCCN(CC)CC)c(I)c1
REMARK SMILES IDX 19 1 30 2 16 3 20 4 17 5 31 6 18 7 29 8 21 9 22 10 23 11
REMARK SMILES IDX 24 12 25 13 26 14 27 15 28 16 14 17 15 18 13 19 5 20 12 21
REMARK SMILES IDX 6 22 7 23 11 24 8 25 10 26 9 27 4 28 3 29 2 30 1 31
REMARK H PARENT
ROOT
ATOM      1  I   UNL     1     -28.610   7.333 -52.160  1.00  0.00    -0.040 I 
ATOM      2  I   UNL     1     -22.950   9.616 -52.161  1.00  0.00    -0.040 I 
ATOM      3  C   UNL     1     -24.953   6.426 -54.309  1.00  0.00     0.025 A 
ATOM      4  C   UNL     1     -25.701   8.280 -52.364  1.00  0.00     0.146 A 
ATOM      5  C   UNL     1     -26.261   6.438 -53.823  1.00  0.00     0.031 A 
ATOM      6  C   UNL     1     -24.020   7.341 -53.823  1.00  0.00     0.031 A 
ATOM      7  C   UNL     1     -26.635   7.365 -52.850  1.00  0.00     0.057 A 
ATOM      8  C   UNL     1     -24.394   8.268 -52.849  1.00  0.00     0.057 A 
ENDROOT
BRANCH   4   9
ATOM      9  O   UNL     1     -26.066   9.188 -51.410  1.00  0.00    -0.490 OA
BRANCH   9  10
ATOM     10  C   UNL     1     -25.990   8.763 -50.052  1.00  0.00     0.245 C 
BRANCH  10  11
ATOM     11  C   UNL     1     -25.346   9.868 -49.230  1.00  0.00     0.126 C 
BRANCH  11  12
ATOM     12  N   UNL     1     -26.343  10.838 -48.804  1.00  0.00    -0.301 NA
BRANCH  12  13
ATOM     13  C   UNL     1     -27.293  10.229 -47.868  1.00  0.00     0.081 C 
ATOM     14  C   UNL     1     -27.260  10.929 -46.520  1.00  0.00     0.021 C 
ENDBRANCH  12  13
BRANCH  12  15
ATOM     15  C   UNL     1     -25.704  12.003 -48.189  1.00  0.00     0.081 C 
ATOM     16  C   UNL     1     -25.986  13.268 -48.982  1.00  0.00     0.021 C 
ENDBRANCH  12  15
ENDBRANCH  11  12
ENDBRANCH  10  11
ENDBRANCH   9  10
ENDBRANCH   4   9
BRANCH   3  17
ATOM     17  C   UNL     1     -24.551   5.432 -55.351  1.00  0.00     0.197 C 
ATOM     18  O   UNL     1     -25.329   5.326 -56.317  1.00  0.00    -0.288 OA
BRANCH  17  19
ATOM     19  C   UNL     1     -23.340   4.674 -55.224  1.00  0.00     0.072 A 
ATOM     20  C   UNL     1     -23.229   3.457 -54.591  1.00  0.00     0.116 A 
ATOM     21  C   UNL     1     -22.043   4.996 -55.703  1.00  0.00     0.032 A 
ATOM     22  O   UNL     1     -21.950   3.002 -54.645  1.00  0.00    -0.460 OA
ATOM     23  C   UNL     1     -21.225   3.937 -55.322  1.00  0.00     0.135 A 
ATOM     24  C   UNL     1     -21.470   6.063 -56.416  1.00  0.00     0.013 A 
ATOM     25  C   UNL     1     -19.862   3.862 -55.600  1.00  0.00     0.048 A 
ATOM     26  C   UNL     1     -20.100   6.017 -56.712  1.00  0.00     0.001 A 
ATOM     27  C   UNL     1     -19.313   4.935 -56.310  1.00  0.00     0.004 A 
BRANCH  20  28
ATOM     28  C   UNL     1     -24.190   2.591 -53.893  1.00  0.00     0.076 C 
BRANCH  28  29
ATOM     29  C   UNL     1     -25.042   1.740 -54.862  1.00  0.00     0.008 C 
BRANCH  29  30
ATOM     30  C   UNL     1     -26.475   2.257 -54.992  1.00  0.00    -0.003 C 
ATOM     31  C   UNL     1     -26.956   2.898 -53.700  1.00  0.00     0.004 C 
ENDBRANCH  29  30
ENDBRANCH  28  29
ENDBRANCH  20  28
ENDBRANCH  17  19
ENDBRANCH   3  17
TORSDOF 11
ENDMDL
