MODEL 1
REMARK VINA RESULT:      -4.2      0.000      0.000
REMARK SMILES CC(=O)Oc1ccccc1C(=O)O
REMARK SMILES IDX 5 1 10 2 6 3 9 4 7 5 8 6 4 7 2 8 3 9 1 10 11 11 12 12 13 13
REMARK H PARENT 13 14
ROOT
ATOM      1  C   UNL     1     -12.215   1.667 -43.841  1.00  0.00     0.145 A 
ATOM      2  C   UNL     1     -11.464   1.301 -42.724  1.00  0.00     0.102 A 
ATOM      3  C   UNL     1     -12.223   0.853 -44.973  1.00  0.00     0.048 A 
ATOM      4  C   UNL     1     -10.722   0.120 -42.739  1.00  0.00     0.019 A 
ATOM      5  C   UNL     1     -11.481  -0.328 -44.989  1.00  0.00     0.004 A 
ATOM      6  C   UNL     1     -10.730  -0.693 -43.872  1.00  0.00     0.001 A 
ENDROOT
BRANCH   1   7
ATOM      7  O   UNL     1     -12.949   2.816 -43.844  1.00  0.00    -0.426 OA
BRANCH   7   8
ATOM      8  C   UNL     1     -12.224   3.956 -44.221  1.00  0.00     0.308 C 
ATOM      9  O   UNL     1     -11.291   3.983 -45.013  1.00  0.00    -0.252 OA
ATOM     10  C   UNL     1     -12.759   5.162 -43.507  1.00  0.00     0.139 C 
ENDBRANCH   7   8
ENDBRANCH   1   7
BRANCH   2  11
ATOM     11  C   UNL     1     -11.444   2.136 -41.530  1.00  0.00     0.339 C 
ATOM     12  O   UNL     1     -10.447   2.609 -40.992  1.00  0.00    -0.246 OA
BRANCH  11  13
ATOM     13  O   UNL     1     -12.696   2.351 -41.040  1.00  0.00    -0.478 OA
ATOM     14  H   UNL     1     -13.381   2.264 -41.737  1.00  0.00     0.297 HD
ENDBRANCH  11  13
ENDBRANCH   2  11
TORSDOF 4
ENDMDL
MODEL 2
REMARK VINA RESULT:      -4.0     16.494     18.000
REMARK SMILES CC(=O)Oc1ccccc1C(=O)O
REMARK SMILES IDX 5 1 10 2 6 3 9 4 7 5 8 6 4 7 2 8 3 9 1 10 11 11 12 12 13 13
REMARK H PARENT 13 14
ROOT
ATOM      1  C   UNL     1     -24.884   3.648 -55.131  1.00  0.00     0.145 A 
ATOM      2  C   UNL     1     -25.843   2.642 -55.010  1.00  0.00     0.102 A 
ATOM      3  C   UNL     1     -25.041   4.847 -54.435  1.00  0.00     0.048 A 
ATOM      4  C   UNL     1     -26.957   2.834 -54.193  1.00  0.00     0.019 A 
ATOM      5  C   UNL     1     -26.155   5.039 -53.618  1.00  0.00     0.004 A 
ATOM      6  C   UNL     1     -27.112   4.033 -53.498  1.00  0.00     0.001 A 
ENDROOT
BRANCH   1   7
ATOM      7  O   UNL     1     -23.788   3.479 -55.923  1.00  0.00    -0.426 OA
BRANCH   7   8
ATOM      8  C   UNL     1     -22.580   3.386 -55.214  1.00  0.00     0.308 C 
ATOM      9  O   UNL     1     -22.329   2.579 -54.329  1.00  0.00    -0.252 OA
ATOM     10  C   UNL     1     -21.620   4.432 -55.699  1.00  0.00     0.139 C 
ENDBRANCH   7   8
ENDBRANCH   1   7
BRANCH   2  11
ATOM     11  C   UNL     1     -25.698   1.381 -55.727  1.00  0.00     0.339 C 
ATOM     12  O   UNL     1     -26.466   0.935 -56.574  1.00  0.00    -0.246 OA
BRANCH  11  13
ATOM     13  O   UNL     1     -24.575   0.710 -55.349  1.00  0.00    -0.478 OA
ATOM     14  H   UNL     1     -24.536  -0.187 -55.744  1.00  0.00     0.297 HD
ENDBRANCH  11  13
ENDBRANCH   2  11
TORSDOF 4
ENDMDL
MODEL 3
REMARK VINA RESULT:      -3.8     18.146     19.544
REMARK SMILES CC(=O)Oc1ccccc1C(=O)O
REMARK SMILES IDX 5 1 10 2 6 3 9 4 7 5 8 6 4 7 2 8 3 9 1 10 11 11 12 12 13 13
REMARK H PARENT 13 14
ROOT
ATOM      1  C   UNL     1     -26.413   3.040 -56.190  1.00  0.00     0.145 A 
ATOM      2  C   UNL     1     -26.024   2.592 -54.928  1.00  0.00     0.102 A 
ATOM      3  C   UNL     1     -27.611   3.738 -56.343  1.00  0.00     0.048 A 
ATOM      4  C   UNL     1     -26.832   2.842 -53.819  1.00  0.00     0.019 A 
ATOM      5  C   UNL     1     -28.420   3.988 -55.234  1.00  0.00     0.004 A 
ATOM      6  C   UNL     1     -28.030   3.540 -53.973  1.00  0.00     0.001 A 
ENDROOT
BRANCH   1   7
ATOM      7  O   UNL     1     -25.636   2.808 -57.285  1.00  0.00    -0.426 OA
BRANCH   7   8
ATOM      8  C   UNL     1     -26.199   1.909 -58.205  1.00  0.00     0.308 C 
ATOM      9  O   UNL     1     -26.597   0.780 -57.951  1.00  0.00    -0.252 OA
ATOM     10  C   UNL     1     -26.245   2.532 -59.568  1.00  0.00     0.139 C 
ENDBRANCH   7   8
ENDBRANCH   1   7
BRANCH   2  11
ATOM     11  C   UNL     1     -24.775   1.863 -54.745  1.00  0.00     0.339 C 
ATOM     12  O   UNL     1     -23.821   2.218 -54.059  1.00  0.00    -0.246 OA
BRANCH  11  13
ATOM     13  O   UNL     1     -24.764   0.694 -55.443  1.00  0.00    -0.478 OA
ATOM     14  H   UNL     1     -24.243   0.767 -56.271  1.00  0.00     0.297 HD
ENDBRANCH  11  13
ENDBRANCH   2  11
TORSDOF 4
ENDMDL
