MODEL 1
REMARK VINA RESULT:      -7.1      0.000      0.000
REMARK SMILES CC(C)NC[C@@H](O)COc1ccc(CC(N)=O)cc1
REMARK SMILES IDX 8 1 9 2 10 3 11 4 19 5 12 6 18 7 13 8 14 9 15 10 17 11 16 12
REMARK SMILES IDX 6 15 7 16 5 18 4 19 2 21 1 22 3 23
REMARK H PARENT 16 13 16 14 7 17 4 20
ROOT
ATOM      1  C   UNL     1      20.090   1.395  14.813  1.00  0.00     0.262 C 
ENDROOT
BRANCH   1   2
ATOM      2  O   UNL     1      18.981   1.050  13.988  1.00  0.00    -0.491 OA
BRANCH   2   3
ATOM      3  C   UNL     1      19.258   0.751  12.680  1.00  0.00     0.119 A 
ATOM      4  C   UNL     1      19.289  -0.578  12.270  1.00  0.00     0.047 A 
ATOM      5  C   UNL     1      19.505   1.777  11.776  1.00  0.00     0.047 A 
ATOM      6  C   UNL     1      19.572  -0.883  10.939  1.00  0.00     0.008 A 
ATOM      7  C   UNL     1      19.789   1.471  10.444  1.00  0.00     0.008 A 
ATOM      8  C   UNL     1      19.822   0.141  10.025  1.00  0.00    -0.038 A 
BRANCH   8   9
ATOM      9  C   UNL     1      20.124  -0.186   8.602  1.00  0.00     0.135 C 
BRANCH   9  10
ATOM     10  C   UNL     1      19.856  -1.637   8.236  1.00  0.00     0.221 C 
ATOM     11  O   UNL     1      20.648  -2.551   8.452  1.00  0.00    -0.275 OA
ATOM     12  N   UNL     1      18.627  -1.819   7.640  1.00  0.00    -0.369 N 
ATOM     13  H   UNL     1      18.320  -2.740   7.346  1.00  0.00     0.159 HD
ATOM     14  H   UNL     1      17.987  -1.049   7.472  1.00  0.00     0.159 HD
ENDBRANCH   9  10
ENDBRANCH   8   9
ENDBRANCH   2   3
ENDBRANCH   1   2
BRANCH   1  15
ATOM     15  C   UNL     1      20.125   0.450  16.013  1.00  0.00     0.165 C 
BRANCH  15  16
ATOM     16  O   UNL     1      20.939  -0.678  15.680  1.00  0.00    -0.388 OA
ATOM     17  H   UNL     1      20.538  -1.460  16.096  1.00  0.00     0.211 HD
ENDBRANCH  15  16
BRANCH  15  18
ATOM     18  C   UNL     1      18.742  -0.060  16.421  1.00  0.00     0.116 C 
BRANCH  18  19
ATOM     19  N   UNL     1      18.348  -1.241  15.665  1.00  0.00    -0.312 NA
ATOM     20  H   UNL     1      18.467  -1.066  14.668  1.00  0.00     0.123 HD
BRANCH  19  21
ATOM     21  C   UNL     1      16.966  -1.604  15.948  1.00  0.00     0.047 C 
ATOM     22  C   UNL     1      16.047  -0.938  14.929  1.00  0.00     0.024 C 
ATOM     23  C   UNL     1      16.801  -3.121  15.927  1.00  0.00     0.024 C 
ENDBRANCH  19  21
ENDBRANCH  18  19
ENDBRANCH  15  18
ENDBRANCH   1  15
TORSDOF 9
ENDMDL
MODEL 2
REMARK VINA RESULT:      -6.4      2.131      7.270
REMARK SMILES CC(C)NC[C@@H](O)COc1ccc(CC(N)=O)cc1
REMARK SMILES IDX 8 1 9 2 10 3 11 4 19 5 12 6 18 7 13 8 14 9 15 10 17 11 16 12
REMARK SMILES IDX 6 15 7 16 5 18 4 19 2 21 1 22 3 23
REMARK H PARENT 16 13 16 14 7 17 4 20
ROOT
ATOM      1  C   UNL     1      19.704  -1.079  10.830  1.00  0.00     0.262 C 
ENDROOT
BRANCH   1   2
ATOM      2  O   UNL     1      19.620   0.206  11.439  1.00  0.00    -0.491 OA
BRANCH   2   3
ATOM      3  C   UNL     1      19.391   0.231  12.790  1.00  0.00     0.119 A 
ATOM      4  C   UNL     1      19.021   1.424  13.402  1.00  0.00     0.047 A 
ATOM      5  C   UNL     1      19.530  -0.934  13.535  1.00  0.00     0.047 A 
ATOM      6  C   UNL     1      18.789   1.451  14.777  1.00  0.00     0.008 A 
ATOM      7  C   UNL     1      19.298  -0.906  14.910  1.00  0.00     0.008 A 
ATOM      8  C   UNL     1      18.927   0.286  15.532  1.00  0.00    -0.038 A 
BRANCH   8   9
ATOM      9  C   UNL     1      18.678   0.315  17.001  1.00  0.00     0.135 C 
BRANCH   9  10
ATOM     10  C   UNL     1      17.320  -0.238  17.404  1.00  0.00     0.221 C 
ATOM     11  O   UNL     1      16.258   0.341  17.190  1.00  0.00    -0.275 OA
ATOM     12  N   UNL     1      17.407  -1.462  18.031  1.00  0.00    -0.369 N 
ATOM     13  H   UNL     1      16.575  -1.946  18.351  1.00  0.00     0.159 HD
ATOM     14  H   UNL     1      18.296  -1.924  18.196  1.00  0.00     0.159 HD
ENDBRANCH   9  10
ENDBRANCH   8   9
ENDBRANCH   2   3
ENDBRANCH   1   2
BRANCH   1  15
ATOM     15  C   UNL     1      20.683  -1.005   9.659  1.00  0.00     0.165 C 
BRANCH  15  16
ATOM     16  O   UNL     1      20.651   0.320   9.121  1.00  0.00    -0.388 OA
ATOM     17  H   UNL     1      19.994   0.329   8.404  1.00  0.00     0.211 HD
ENDBRANCH  15  16
BRANCH  15  18
ATOM     18  C   UNL     1      20.355  -1.987   8.533  1.00  0.00     0.116 C 
BRANCH  18  19
ATOM     19  N   UNL     1      19.036  -1.747   7.962  1.00  0.00    -0.312 NA
ATOM     20  H   UNL     1      18.341  -2.301   8.460  1.00  0.00     0.123 HD
BRANCH  19  21
ATOM     21  C   UNL     1      19.015  -2.074   6.543  1.00  0.00     0.047 C 
ATOM     22  C   UNL     1      19.863  -3.317   6.296  1.00  0.00     0.024 C 
ATOM     23  C   UNL     1      17.580  -2.285   6.069  1.00  0.00     0.024 C 
ENDBRANCH  19  21
ENDBRANCH  18  19
ENDBRANCH  15  18
ENDBRANCH   1  15
TORSDOF 9
ENDMDL
MODEL 3
REMARK VINA RESULT:      -6.2      2.066      7.259
REMARK SMILES CC(C)NC[C@@H](O)COc1ccc(CC(N)=O)cc1
REMARK SMILES IDX 8 1 9 2 10 3 11 4 19 5 12 6 18 7 13 8 14 9 15 10 17 11 16 12
REMARK SMILES IDX 6 15 7 16 5 18 4 19 2 21 1 22 3 23
REMARK H PARENT 16 13 16 14 7 17 4 20
ROOT
ATOM      1  C   UNL     1      20.787  -1.335   9.083  1.00  0.00     0.262 C 
ENDROOT
BRANCH   1   2
ATOM      2  O   UNL     1      20.183  -0.057   9.263  1.00  0.00    -0.491 OA
BRANCH   2   3
ATOM      3  C   UNL     1      19.863   0.296  10.548  1.00  0.00     0.119 A 
ATOM      4  C   UNL     1      19.681   1.637  10.868  1.00  0.00     0.047 A 
ATOM      5  C   UNL     1      19.723  -0.690  11.519  1.00  0.00     0.047 A 
ATOM      6  C   UNL     1      19.356   1.997  12.176  1.00  0.00     0.008 A 
ATOM      7  C   UNL     1      19.398  -0.329  12.827  1.00  0.00     0.008 A 
ATOM      8  C   UNL     1      19.214   1.014  13.156  1.00  0.00    -0.038 A 
BRANCH   8   9
ATOM      9  C   UNL     1      18.865   1.399  14.553  1.00  0.00     0.135 C 
BRANCH   9  10
ATOM     10  C   UNL     1      19.960   1.099  15.564  1.00  0.00     0.221 C 
ATOM     11  O   UNL     1      21.018   1.722  15.628  1.00  0.00    -0.275 OA
ATOM     12  N   UNL     1      19.639   0.056  16.406  1.00  0.00    -0.369 N 
ATOM     13  H   UNL     1      20.281  -0.248  17.130  1.00  0.00     0.159 HD
ATOM     14  H   UNL     1      18.758  -0.444  16.336  1.00  0.00     0.159 HD
ENDBRANCH   9  10
ENDBRANCH   8   9
ENDBRANCH   2   3
ENDBRANCH   1   2
BRANCH   1  15
ATOM     15  C   UNL     1      19.840  -2.216   8.270  1.00  0.00     0.165 C 
BRANCH  15  16
ATOM     16  O   UNL     1      20.606  -3.247   7.640  1.00  0.00    -0.388 OA
ATOM     17  H   UNL     1      20.114  -3.537   6.853  1.00  0.00     0.211 HD
ENDBRANCH  15  16
BRANCH  15  18
ATOM     18  C   UNL     1      19.083  -1.450   7.184  1.00  0.00     0.116 C 
BRANCH  18  19
ATOM     19  N   UNL     1      18.032  -2.255   6.576  1.00  0.00    -0.312 NA
ATOM     20  H   UNL     1      18.400  -3.174   6.333  1.00  0.00     0.123 HD
BRANCH  19  21
ATOM     21  C   UNL     1      17.494  -1.602   5.391  1.00  0.00     0.047 C 
ATOM     22  C   UNL     1      16.035  -2.006   5.206  1.00  0.00     0.024 C 
ATOM     23  C   UNL     1      17.633  -0.087   5.512  1.00  0.00     0.024 C 
ENDBRANCH  19  21
ENDBRANCH  18  19
ENDBRANCH  15  18
ENDBRANCH   1  15
TORSDOF 9
ENDMDL
