MODEL 1
REMARK VINA RESULT:      -4.4      0.000      0.000
REMARK SMILES CC(C)NC[C@@H](O)COc1ccc(CC(N)=O)cc1
REMARK SMILES IDX 8 1 9 2 10 3 11 4 19 5 12 6 18 7 13 8 14 9 15 10 17 11 16 12
REMARK SMILES IDX 6 15 7 16 5 18 4 19 2 21 1 22 3 23
REMARK H PARENT 16 13 16 14 7 17 4 20
ROOT
ATOM      1  C   UNL     1     -11.498   4.101 -41.340  1.00  0.00     0.262 C 
ENDROOT
BRANCH   1   2
ATOM      2  O   UNL     1     -12.406   3.010 -41.455  1.00  0.00    -0.491 OA
BRANCH   2   3
ATOM      3  C   UNL     1     -12.250   2.193 -42.543  1.00  0.00     0.119 A 
ATOM      4  C   UNL     1     -13.040   2.390 -43.670  1.00  0.00     0.047 A 
ATOM      5  C   UNL     1     -11.304   1.174 -42.510  1.00  0.00     0.047 A 
ATOM      6  C   UNL     1     -12.883   1.557 -44.778  1.00  0.00     0.008 A 
ATOM      7  C   UNL     1     -11.147   0.341 -43.618  1.00  0.00     0.008 A 
ATOM      8  C   UNL     1     -11.936   0.532 -44.752  1.00  0.00    -0.038 A 
BRANCH   8   9
ATOM      9  C   UNL     1     -11.767  -0.357 -45.937  1.00  0.00     0.135 C 
BRANCH   9  10
ATOM     10  C   UNL     1     -10.695   0.111 -46.908  1.00  0.00     0.221 C 
ATOM     11  O   UNL     1      -9.510  -0.201 -46.816  1.00  0.00    -0.275 OA
ATOM     12  N   UNL     1     -11.195   0.919 -47.907  1.00  0.00    -0.369 N 
ATOM     13  H   UNL     1     -10.588   1.300 -48.624  1.00  0.00     0.159 HD
ATOM     14  H   UNL     1     -12.179   1.162 -47.964  1.00  0.00     0.159 HD
ENDBRANCH   9  10
ENDBRANCH   8   9
ENDBRANCH   2   3
ENDBRANCH   1   2
BRANCH   1  15
ATOM     15  C   UNL     1     -11.040   4.210 -39.886  1.00  0.00     0.165 C 
BRANCH  15  16
ATOM     16  O   UNL     1     -11.095   2.909 -39.293  1.00  0.00    -0.388 OA
ATOM     17  H   UNL     1     -10.835   3.002 -38.361  1.00  0.00     0.211 HD
ENDBRANCH  15  16
BRANCH  15  18
ATOM     18  C   UNL     1     -11.903   5.155 -39.049  1.00  0.00     0.116 C 
BRANCH  18  19
ATOM     19  N   UNL     1     -13.310   5.089 -39.422  1.00  0.00    -0.312 NA
ATOM     20  H   UNL     1     -13.398   4.715 -40.365  1.00  0.00     0.123 HD
BRANCH  19  21
ATOM     21  C   UNL     1     -13.933   6.403 -39.344  1.00  0.00     0.047 C 
ATOM     22  C   UNL     1     -14.552   6.752 -40.693  1.00  0.00     0.024 C 
ATOM     23  C   UNL     1     -14.982   6.428 -38.236  1.00  0.00     0.024 C 
ENDBRANCH  19  21
ENDBRANCH  18  19
ENDBRANCH  15  18
ENDBRANCH   1  15
TORSDOF 9
ENDMDL
MODEL 2
REMARK VINA RESULT:      -4.4     17.210     19.612
REMARK SMILES CC(C)NC[C@@H](O)COc1ccc(CC(N)=O)cc1
REMARK SMILES IDX 8 1 9 2 10 3 11 4 19 5 12 6 18 7 13 8 14 9 15 10 17 11 16 12
REMARK SMILES IDX 6 15 7 16 5 18 4 19 2 21 1 22 3 23
REMARK H PARENT 16 13 16 14 7 17 4 20
ROOT
ATOM      1  C   UNL     1     -25.866   1.141 -55.871  1.00  0.00     0.262 C 
ENDROOT
BRANCH   1   2
ATOM      2  O   UNL     1     -26.860   2.116 -56.172  1.00  0.00    -0.491 OA
BRANCH   2   3
ATOM      3  C   UNL     1     -26.983   3.160 -55.293  1.00  0.00     0.119 A 
ATOM      4  C   UNL     1     -26.717   2.957 -53.943  1.00  0.00     0.047 A 
ATOM      5  C   UNL     1     -27.373   4.411 -55.757  1.00  0.00     0.047 A 
ATOM      6  C   UNL     1     -26.843   4.019 -53.047  1.00  0.00     0.008 A 
ATOM      7  C   UNL     1     -27.499   5.472 -54.861  1.00  0.00     0.008 A 
ATOM      8  C   UNL     1     -27.234   5.276 -53.506  1.00  0.00    -0.038 A 
BRANCH   8   9
ATOM      9  C   UNL     1     -27.368   6.411 -52.548  1.00  0.00     0.135 C 
BRANCH   9  10
ATOM     10  C   UNL     1     -28.616   7.252 -52.763  1.00  0.00     0.221 C 
ATOM     11  O   UNL     1     -28.612   8.347 -53.320  1.00  0.00    -0.275 OA
ATOM     12  N   UNL     1     -29.755   6.652 -52.271  1.00  0.00    -0.369 N 
ATOM     13  H   UNL     1     -30.660   7.104 -52.350  1.00  0.00     0.159 HD
ATOM     14  H   UNL     1     -29.736   5.744 -51.816  1.00  0.00     0.159 HD
ENDBRANCH   9  10
ENDBRANCH   8   9
ENDBRANCH   2   3
ENDBRANCH   1   2
BRANCH   1  15
ATOM     15  C   UNL     1     -24.702   1.308 -56.847  1.00  0.00     0.165 C 
BRANCH  15  16
ATOM     16  O   UNL     1     -24.043   0.047 -56.989  1.00  0.00    -0.388 OA
ATOM     17  H   UNL     1     -23.122   0.164 -56.700  1.00  0.00     0.211 HD
ENDBRANCH  15  16
BRANCH  15  18
ATOM     18  C   UNL     1     -23.670   2.339 -56.387  1.00  0.00     0.116 C 
BRANCH  18  19
ATOM     19  N   UNL     1     -23.380   2.228 -54.964  1.00  0.00    -0.312 NA
ATOM     20  H   UNL     1     -24.238   2.027 -54.453  1.00  0.00     0.123 HD
BRANCH  19  21
ATOM     21  C   UNL     1     -22.770   3.450 -54.459  1.00  0.00     0.047 C 
ATOM     22  C   UNL     1     -21.328   3.538 -54.947  1.00  0.00     0.024 C 
ATOM     23  C   UNL     1     -23.576   4.667 -54.906  1.00  0.00     0.024 C 
ENDBRANCH  19  21
ENDBRANCH  18  19
ENDBRANCH  15  18
ENDBRANCH   1  15
TORSDOF 9
ENDMDL
MODEL 3
REMARK VINA RESULT:      -4.2     16.995     18.253
REMARK SMILES CC(C)NC[C@@H](O)COc1ccc(CC(N)=O)cc1
REMARK SMILES IDX 8 1 9 2 10 3 11 4 19 5 12 6 18 7 13 8 14 9 15 10 17 11 16 12
REMARK SMILES IDX 6 15 7 16 5 18 4 19 2 21 1 22 3 23
REMARK H PARENT 16 13 16 14 7 17 4 20
ROOT
ATOM      1  C   UNL     1     -28.261   7.135 -53.245  1.00  0.00     0.262 C 
ENDROOT
BRANCH   1   2
ATOM      2  O   UNL     1     -28.529   5.736 -53.235  1.00  0.00    -0.491 OA
BRANCH   2   3
ATOM      3  C   UNL     1     -27.500   4.911 -53.605  1.00  0.00     0.119 A 
ATOM      4  C   UNL     1     -26.233   5.444 -53.817  1.00  0.00     0.047 A 
ATOM      5  C   UNL     1     -27.732   3.550 -53.767  1.00  0.00     0.047 A 
ATOM      6  C   UNL     1     -25.185   4.604 -54.196  1.00  0.00     0.008 A 
ATOM      7  C   UNL     1     -26.684   2.711 -54.147  1.00  0.00     0.008 A 
ATOM      8  C   UNL     1     -25.411   3.238 -54.361  1.00  0.00    -0.038 A 
BRANCH   8   9
ATOM      9  C   UNL     1     -24.290   2.341 -54.765  1.00  0.00     0.135 C 
BRANCH   9  10
ATOM     10  C   UNL     1     -24.400   1.826 -56.191  1.00  0.00     0.221 C 
ATOM     11  O   UNL     1     -24.357   2.551 -57.182  1.00  0.00    -0.275 OA
ATOM     12  N   UNL     1     -24.547   0.457 -56.255  1.00  0.00    -0.369 N 
ATOM     13  H   UNL     1     -24.630  -0.019 -57.147  1.00  0.00     0.159 HD
ATOM     14  H   UNL     1     -24.578  -0.123 -55.423  1.00  0.00     0.159 HD
ENDBRANCH   9  10
ENDBRANCH   8   9
ENDBRANCH   2   3
ENDBRANCH   1   2
BRANCH   1  15
ATOM     15  C   UNL     1     -28.227   7.641 -51.804  1.00  0.00     0.165 C 
BRANCH  15  16
ATOM     16  O   UNL     1     -29.500   7.390 -51.203  1.00  0.00    -0.388 OA
ATOM     17  H   UNL     1     -29.849   8.243 -50.891  1.00  0.00     0.211 HD
ENDBRANCH  15  16
BRANCH  15  18
ATOM     18  C   UNL     1     -27.932   9.138 -51.695  1.00  0.00     0.116 C 
BRANCH  18  19
ATOM     19  N   UNL     1     -26.848   9.417 -50.761  1.00  0.00    -0.312 NA
ATOM     20  H   UNL     1     -26.350  10.256 -51.054  1.00  0.00     0.123 HD
BRANCH  19  21
ATOM     21  C   UNL     1     -25.928   8.291 -50.679  1.00  0.00     0.047 C 
ATOM     22  C   UNL     1     -24.793   8.489 -51.678  1.00  0.00     0.024 C 
ATOM     23  C   UNL     1     -25.390   8.148 -49.258  1.00  0.00     0.024 C 
ENDBRANCH  19  21
ENDBRANCH  18  19
ENDBRANCH  15  18
ENDBRANCH   1  15
TORSDOF 9
ENDMDL
