MODEL 1
REMARK VINA RESULT:      -4.6      0.000      0.000
REMARK SMILES CC(C)c1c(C(=O)Nc2ccccc2)c(-c2ccccc2)c(-c2ccc(F)cc2)n1CC[C@@H](O)C[C@@H](O)CC(=O)O
REMARK SMILES IDX 33 1 32 2 31 3 30 4 22 5 15 6 4 7 5 8 23 9 26 10 25 11 28 12
REMARK SMILES IDX 24 13 29 14 27 15 16 16 17 17 21 18 18 19 20 20 19 21 2 22
REMARK SMILES IDX 1 23 3 24 6 25 7 26 8 27 9 29 10 30 14 31 11 32 13 33 12 34
REMARK SMILES IDX 34 35 35 37 36 38 37 39 38 41 39 42 40 43 41 44
REMARK H PARENT 8 28 34 36 37 40 41 45
ROOT
ATOM      1  C   UNL     1     -25.178   7.629 -54.334  1.00  0.00     0.118 C 
ENDROOT
BRANCH   1   2
ATOM      2  C   UNL     1     -24.074   7.003 -55.198  1.00  0.00     0.053 C 
BRANCH   2   3
ATOM      3  C   UNL     1     -23.490   5.705 -54.626  1.00  0.00     0.125 C 
BRANCH   3   4
ATOM      4  N   UNL     1     -23.268   4.670 -55.629  1.00  0.00    -0.343 N 
ATOM      5  C   UNL     1     -24.200   3.762 -56.059  1.00  0.00     0.057 A 
ATOM      6  C   UNL     1     -23.604   2.963 -57.010  1.00  0.00     0.021 A 
ATOM      7  C   UNL     1     -22.086   4.464 -56.292  1.00  0.00     0.034 A 
ATOM      8  C   UNL     1     -22.266   3.407 -57.157  1.00  0.00     0.069 A 
BRANCH   5   9
ATOM      9  C   UNL     1     -25.552   3.734 -55.537  1.00  0.00    -0.001 A 
ATOM     10  C   UNL     1     -28.153   3.682 -54.531  1.00  0.00     0.123 A 
ATOM     11  C   UNL     1     -27.115   3.092 -53.810  1.00  0.00     0.040 A 
ATOM     12  C   UNL     1     -27.891   4.298 -55.754  1.00  0.00     0.040 A 
ATOM     13  C   UNL     1     -25.814   3.118 -54.313  1.00  0.00     0.013 A 
ATOM     14  C   UNL     1     -26.590   4.324 -56.257  1.00  0.00     0.013 A 
ATOM     15  F   UNL     1     -29.402   3.657 -54.048  1.00  0.00    -0.207 F 
ENDBRANCH   5   9
BRANCH   6  16
ATOM     16  C   UNL     1     -24.283   1.892 -57.685  1.00  0.00    -0.015 A 
ATOM     17  C   UNL     1     -24.244   0.600 -57.160  1.00  0.00     0.009 A 
ATOM     18  C   UNL     1     -24.982   2.143 -58.866  1.00  0.00     0.009 A 
ATOM     19  C   UNL     1     -24.903  -0.440 -57.815  1.00  0.00     0.001 A 
ATOM     20  C   UNL     1     -25.640   1.103 -59.521  1.00  0.00     0.001 A 
ATOM     21  C   UNL     1     -25.601  -0.189 -58.996  1.00  0.00     0.000 A 
ENDBRANCH   6  16
BRANCH   7  22
ATOM     22  C   UNL     1     -20.891   5.298 -56.038  1.00  0.00     0.031 C 
ATOM     23  C   UNL     1     -20.462   6.133 -57.267  1.00  0.00     0.014 C 
ATOM     24  C   UNL     1     -19.681   4.483 -55.524  1.00  0.00     0.014 C 
ENDBRANCH   7  22
BRANCH   8  25
ATOM     25  C   UNL     1     -21.251   2.887 -58.030  1.00  0.00     0.258 C 
ATOM     26  O   UNL     1     -21.055   3.371 -59.161  1.00  0.00    -0.269 OA
ATOM     27  N   UNL     1     -20.531   1.784 -57.534  1.00  0.00    -0.322 N 
ATOM     28  H   UNL     1     -20.774   1.465 -56.598  1.00  0.00     0.170 HD
BRANCH  27  29
ATOM     29  C   UNL     1     -19.505   1.036 -58.164  1.00  0.00     0.041 A 
ATOM     30  C   UNL     1     -19.833   0.006 -59.045  1.00  0.00     0.026 A 
ATOM     31  C   UNL     1     -18.166   1.331 -57.904  1.00  0.00     0.026 A 
ATOM     32  C   UNL     1     -18.823  -0.730 -59.666  1.00  0.00     0.002 A 
ATOM     33  C   UNL     1     -17.156   0.595 -58.524  1.00  0.00     0.002 A 
ATOM     34  C   UNL     1     -17.485  -0.435 -59.405  1.00  0.00     0.000 A 
ENDBRANCH  27  29
ENDBRANCH   8  25
ENDBRANCH   3   4
ENDBRANCH   2   3
ENDBRANCH   1   2
BRANCH   1  35
ATOM     35  O   UNL     1     -26.426   7.450 -55.009  1.00  0.00    -0.393 OA
ATOM     36  H   UNL     1     -26.674   8.306 -55.398  1.00  0.00     0.210 HD
ENDBRANCH   1  35
BRANCH   1  37
ATOM     37  C   UNL     1     -25.310   6.999 -52.935  1.00  0.00     0.064 C 
BRANCH  37  38
ATOM     38  C   UNL     1     -26.495   7.452 -52.071  1.00  0.00     0.128 C 
BRANCH  38  39
ATOM     39  O   UNL     1     -27.056   8.636 -52.632  1.00  0.00    -0.392 OA
ATOM     40  H   UNL     1     -26.470   9.377 -52.408  1.00  0.00     0.210 HD
ENDBRANCH  38  39
BRANCH  38  41
ATOM     41  C   UNL     1     -27.576   6.381 -51.924  1.00  0.00     0.154 C 
BRANCH  41  42
ATOM     42  C   UNL     1     -28.923   6.899 -52.369  1.00  0.00     0.305 C 
ATOM     43  O   UNL     1     -29.816   7.230 -51.600  1.00  0.00    -0.252 OA
BRANCH  42  44
ATOM     44  O   UNL     1     -29.044   6.943 -53.719  1.00  0.00    -0.481 OA
ATOM     45  H   UNL     1     -28.368   7.526 -54.128  1.00  0.00     0.296 HD
ENDBRANCH  42  44
ENDBRANCH  41  42
ENDBRANCH  38  41
ENDBRANCH  37  38
ENDBRANCH   1  37
TORSDOF 15
ENDMDL
MODEL 2
REMARK VINA RESULT:      -4.3      2.972      6.135
REMARK SMILES CC(C)c1c(C(=O)Nc2ccccc2)c(-c2ccccc2)c(-c2ccc(F)cc2)n1CC[C@@H](O)C[C@@H](O)CC(=O)O
REMARK SMILES IDX 33 1 32 2 31 3 30 4 22 5 15 6 4 7 5 8 23 9 26 10 25 11 28 12
REMARK SMILES IDX 24 13 29 14 27 15 16 16 17 17 21 18 18 19 20 20 19 21 2 22
REMARK SMILES IDX 1 23 3 24 6 25 7 26 8 27 9 29 10 30 14 31 11 32 13 33 12 34
REMARK SMILES IDX 34 35 35 37 36 38 37 39 38 41 39 42 40 43 41 44
REMARK H PARENT 8 28 34 36 37 40 41 45
ROOT
ATOM      1  C   UNL     1     -29.052   8.370 -51.993  1.00  0.00     0.118 C 
ENDROOT
BRANCH   1   2
ATOM      2  C   UNL     1     -28.567   7.335 -53.018  1.00  0.00     0.053 C 
BRANCH   2   3
ATOM      3  C   UNL     1     -27.292   6.589 -52.599  1.00  0.00     0.125 C 
BRANCH   3   4
ATOM      4  N   UNL     1     -26.409   6.270 -53.714  1.00  0.00    -0.343 N 
ATOM      5  C   UNL     1     -25.334   7.017 -54.120  1.00  0.00     0.057 A 
ATOM      6  C   UNL     1     -24.760   6.380 -55.198  1.00  0.00     0.021 A 
ATOM      7  C   UNL     1     -26.529   5.164 -54.516  1.00  0.00     0.034 A 
ATOM      8  C   UNL     1     -25.516   5.208 -55.449  1.00  0.00     0.069 A 
BRANCH   5   9
ATOM      9  C   UNL     1     -24.954   8.250 -53.459  1.00  0.00    -0.001 A 
ATOM     10  C   UNL     1     -24.221  10.623 -52.190  1.00  0.00     0.123 A 
ATOM     11  C   UNL     1     -23.814   9.396 -51.664  1.00  0.00     0.040 A 
ATOM     12  C   UNL     1     -24.994  10.663 -53.350  1.00  0.00     0.040 A 
ATOM     13  C   UNL     1     -24.180   8.210 -52.299  1.00  0.00     0.013 A 
ATOM     14  C   UNL     1     -25.361   9.477 -53.985  1.00  0.00     0.013 A 
ATOM     15  F   UNL     1     -23.870  11.762 -51.580  1.00  0.00    -0.207 F 
ENDBRANCH   5   9
BRANCH   6  16
ATOM     16  C   UNL     1     -23.604   6.878 -55.891  1.00  0.00    -0.015 A 
ATOM     17  C   UNL     1     -23.758   7.611 -57.068  1.00  0.00     0.009 A 
ATOM     18  C   UNL     1     -22.327   6.628 -55.387  1.00  0.00     0.009 A 
ATOM     19  C   UNL     1     -22.635   8.095 -57.741  1.00  0.00     0.001 A 
ATOM     20  C   UNL     1     -21.205   7.111 -56.060  1.00  0.00     0.001 A 
ATOM     21  C   UNL     1     -21.359   7.845 -57.237  1.00  0.00     0.000 A 
ENDBRANCH   6  16
BRANCH   7  22
ATOM     22  C   UNL     1     -27.603   4.167 -54.317  1.00  0.00     0.031 C 
ATOM     23  C   UNL     1     -27.072   2.793 -53.842  1.00  0.00     0.014 C 
ATOM     24  C   UNL     1     -28.488   3.970 -55.569  1.00  0.00     0.014 C 
ENDBRANCH   7  22
BRANCH   8  25
ATOM     25  C   UNL     1     -25.307   4.219 -56.470  1.00  0.00     0.258 C 
ATOM     26  O   UNL     1     -25.851   4.313 -57.587  1.00  0.00    -0.269 OA
ATOM     27  N   UNL     1     -24.486   3.135 -56.106  1.00  0.00    -0.322 N 
ATOM     28  H   UNL     1     -24.096   3.155 -55.165  1.00  0.00     0.170 HD
BRANCH  27  29
ATOM     29  C   UNL     1     -24.126   1.997 -56.870  1.00  0.00     0.041 A 
ATOM     30  C   UNL     1     -24.966   0.884 -56.904  1.00  0.00     0.026 A 
ATOM     31  C   UNL     1     -22.931   1.990 -57.591  1.00  0.00     0.026 A 
ATOM     32  C   UNL     1     -24.611  -0.235 -57.657  1.00  0.00     0.002 A 
ATOM     33  C   UNL     1     -22.577   0.871 -58.344  1.00  0.00     0.002 A 
ATOM     34  C   UNL     1     -23.417  -0.242 -58.377  1.00  0.00     0.000 A 
ENDBRANCH  27  29
ENDBRANCH   8  25
ENDBRANCH   3   4
ENDBRANCH   2   3
ENDBRANCH   1   2
BRANCH   1  35
ATOM     35  O   UNL     1     -29.426   7.674 -50.800  1.00  0.00    -0.393 OA
ATOM     36  H   UNL     1     -28.843   6.900 -50.718  1.00  0.00     0.210 HD
ENDBRANCH   1  35
BRANCH   1  37
ATOM     37  C   UNL     1     -27.990   9.416 -51.609  1.00  0.00     0.064 C 
BRANCH  37  38
ATOM     38  C   UNL     1     -27.618   9.526 -50.123  1.00  0.00     0.128 C 
BRANCH  38  39
ATOM     39  O   UNL     1     -26.671   8.510 -49.803  1.00  0.00    -0.392 OA
ATOM     40  H   UNL     1     -26.726   7.826 -50.490  1.00  0.00     0.210 HD
ENDBRANCH  38  39
BRANCH  38  41
ATOM     41  C   UNL     1     -27.061  10.897 -49.742  1.00  0.00     0.154 C 
BRANCH  41  42
ATOM     42  C   UNL     1     -26.078  10.790 -48.601  1.00  0.00     0.305 C 
ATOM     43  O   UNL     1     -24.884  11.043 -48.702  1.00  0.00    -0.252 OA
BRANCH  42  44
ATOM     44  O   UNL     1     -26.658  10.367 -47.451  1.00  0.00    -0.481 OA
ATOM     45  H   UNL     1     -27.620  10.210 -47.563  1.00  0.00     0.296 HD
ENDBRANCH  42  44
ENDBRANCH  41  42
ENDBRANCH  38  41
ENDBRANCH  37  38
ENDBRANCH   1  37
TORSDOF 15
ENDMDL
MODEL 3
REMARK VINA RESULT:      -4.3      4.501      8.945
REMARK SMILES CC(C)c1c(C(=O)Nc2ccccc2)c(-c2ccccc2)c(-c2ccc(F)cc2)n1CC[C@@H](O)C[C@@H](O)CC(=O)O
REMARK SMILES IDX 33 1 32 2 31 3 30 4 22 5 15 6 4 7 5 8 23 9 26 10 25 11 28 12
REMARK SMILES IDX 24 13 29 14 27 15 16 16 17 17 21 18 18 19 20 20 19 21 2 22
REMARK SMILES IDX 1 23 3 24 6 25 7 26 8 27 9 29 10 30 14 31 11 32 13 33 12 34
REMARK SMILES IDX 34 35 35 37 36 38 37 39 38 41 39 42 40 43 41 44
REMARK H PARENT 8 28 34 36 37 40 41 45
ROOT
ATOM      1  C   UNL     1     -22.109   5.049 -55.540  1.00  0.00     0.118 C 
ENDROOT
BRANCH   1   2
ATOM      2  C   UNL     1     -21.494   6.454 -55.479  1.00  0.00     0.053 C 
BRANCH   2   3
ATOM      3  C   UNL     1     -22.520   7.592 -55.569  1.00  0.00     0.125 C 
BRANCH   3   4
ATOM      4  N   UNL     1     -22.757   8.268 -54.299  1.00  0.00    -0.343 N 
ATOM      5  C   UNL     1     -23.924   8.230 -53.581  1.00  0.00     0.057 A 
ATOM      6  C   UNL     1     -23.745   8.989 -52.445  1.00  0.00     0.021 A 
ATOM      7  C   UNL     1     -21.836   9.039 -53.639  1.00  0.00     0.034 A 
ATOM      8  C   UNL     1     -22.424   9.501 -52.482  1.00  0.00     0.069 A 
BRANCH   5   9
ATOM      9  C   UNL     1     -25.086   7.489 -54.029  1.00  0.00    -0.001 A 
ATOM     10  C   UNL     1     -27.324   6.064 -54.891  1.00  0.00     0.123 A 
ATOM     11  C   UNL     1     -26.511   5.543 -53.884  1.00  0.00     0.040 A 
ATOM     12  C   UNL     1     -27.019   7.297 -55.466  1.00  0.00     0.040 A 
ATOM     13  C   UNL     1     -25.392   6.256 -53.453  1.00  0.00     0.013 A 
ATOM     14  C   UNL     1     -25.899   8.010 -55.035  1.00  0.00     0.013 A 
ATOM     15  F   UNL     1     -28.398   5.380 -55.305  1.00  0.00    -0.207 F 
ENDBRANCH   5   9
BRANCH   6  16
ATOM     16  C   UNL     1     -24.763   9.180 -51.449  1.00  0.00    -0.015 A 
ATOM     17  C   UNL     1     -24.777   8.383 -50.304  1.00  0.00     0.009 A 
ATOM     18  C   UNL     1     -25.738  10.161 -51.627  1.00  0.00     0.009 A 
ATOM     19  C   UNL     1     -25.766   8.567 -49.337  1.00  0.00     0.001 A 
ATOM     20  C   UNL     1     -26.726  10.346 -50.661  1.00  0.00     0.001 A 
ATOM     21  C   UNL     1     -26.741   9.548 -49.516  1.00  0.00     0.000 A 
ENDBRANCH   6  16
BRANCH   7  22
ATOM     22  C   UNL     1     -20.476   9.263 -54.175  1.00  0.00     0.031 C 
ATOM     23  C   UNL     1     -19.365   9.041 -53.122  1.00  0.00     0.014 C 
ATOM     24  C   UNL     1     -20.301  10.657 -54.820  1.00  0.00     0.014 C 
ENDBRANCH   7  22
BRANCH   8  25
ATOM     25  C   UNL     1     -21.773  10.346 -51.520  1.00  0.00     0.258 C 
ATOM     26  O   UNL     1     -21.489  11.530 -51.782  1.00  0.00    -0.269 OA
ATOM     27  N   UNL     1     -21.452   9.734 -50.293  1.00  0.00    -0.322 N 
ATOM     28  H   UNL     1     -21.726   8.759 -50.186  1.00  0.00     0.170 HD
BRANCH  27  29
ATOM     29  C   UNL     1     -20.784  10.287 -49.172  1.00  0.00     0.041 A 
ATOM     30  C   UNL     1     -19.517   9.824 -48.817  1.00  0.00     0.026 A 
ATOM     31  C   UNL     1     -21.393  11.294 -48.424  1.00  0.00     0.026 A 
ATOM     32  C   UNL     1     -18.859  10.369 -47.714  1.00  0.00     0.002 A 
ATOM     33  C   UNL     1     -20.735  11.839 -47.320  1.00  0.00     0.002 A 
ATOM     34  C   UNL     1     -19.468  11.376 -46.965  1.00  0.00     0.000 A 
ENDBRANCH  27  29
ENDBRANCH   8  25
ENDBRANCH   3   4
ENDBRANCH   2   3
ENDBRANCH   1   2
BRANCH   1  35
ATOM     35  O   UNL     1     -22.351   4.611 -54.200  1.00  0.00    -0.393 OA
ATOM     36  H   UNL     1     -22.016   3.701 -54.125  1.00  0.00     0.210 HD
ENDBRANCH   1  35
BRANCH   1  37
ATOM     37  C   UNL     1     -23.446   4.983 -56.301  1.00  0.00     0.064 C 
BRANCH  37  38
ATOM     38  C   UNL     1     -23.890   3.608 -56.822  1.00  0.00     0.128 C 
BRANCH  38  39
ATOM     39  O   UNL     1     -22.810   2.688 -56.686  1.00  0.00    -0.392 OA
ATOM     40  H   UNL     1     -21.998   3.138 -56.970  1.00  0.00     0.210 HD
ENDBRANCH  38  39
BRANCH  38  41
ATOM     41  C   UNL     1     -25.130   3.067 -56.110  1.00  0.00     0.154 C 
BRANCH  41  42
ATOM     42  C   UNL     1     -24.750   2.155 -54.969  1.00  0.00     0.305 C 
ATOM     43  O   UNL     1     -24.419   2.551 -53.858  1.00  0.00    -0.252 OA
BRANCH  42  44
ATOM     44  O   UNL     1     -24.800   0.844 -55.311  1.00  0.00    -0.481 OA
ATOM     45  H   UNL     1     -25.721   0.538 -55.456  1.00  0.00     0.296 HD
ENDBRANCH  42  44
ENDBRANCH  41  42
ENDBRANCH  38  41
ENDBRANCH  37  38
ENDBRANCH   1  37
TORSDOF 15
ENDMDL
