MODEL 1
REMARK VINA RESULT:      -6.8      0.000      0.000
REMARK SMILES CC(C)c1c(C(=O)Nc2ccccc2)c(-c2ccccc2)c(-c2ccc(F)cc2)n1CC[C@@H](O)C[C@@H](O)CC(=O)O
REMARK SMILES IDX 33 1 32 2 31 3 30 4 22 5 15 6 4 7 5 8 23 9 26 10 25 11 28 12
REMARK SMILES IDX 24 13 29 14 27 15 16 16 17 17 21 18 18 19 20 20 19 21 2 22
REMARK SMILES IDX 1 23 3 24 6 25 7 26 8 27 9 29 10 30 14 31 11 32 13 33 12 34
REMARK SMILES IDX 34 35 35 37 36 38 37 39 38 41 39 42 40 43 41 44
REMARK H PARENT 8 28 34 36 37 40 41 45
ROOT
ATOM      1  C   UNL     1      22.776   7.233   3.565  1.00  0.00     0.118 C 
ENDROOT
BRANCH   1   2
ATOM      2  C   UNL     1      21.834   6.023   3.639  1.00  0.00     0.053 C 
BRANCH   2   3
ATOM      3  C   UNL     1      21.354   5.520   2.271  1.00  0.00     0.125 C 
BRANCH   3   4
ATOM      4  N   UNL     1      21.230   4.069   2.192  1.00  0.00    -0.343 N 
ATOM      5  C   UNL     1      22.225   3.202   1.821  1.00  0.00     0.057 A 
ATOM      6  C   UNL     1      21.714   1.924   1.877  1.00  0.00     0.021 A 
ATOM      7  C   UNL     1      20.092   3.363   2.486  1.00  0.00     0.034 A 
ATOM      8  C   UNL     1      20.365   2.026   2.298  1.00  0.00     0.069 A 
BRANCH   5   9
ATOM      9  C   UNL     1      23.550   3.658   1.450  1.00  0.00    -0.001 A 
ATOM     10  C   UNL     1      26.101   4.537   0.739  1.00  0.00     0.123 A 
ATOM     11  C   UNL     1      25.111   4.404  -0.236  1.00  0.00     0.040 A 
ATOM     12  C   UNL     1      25.815   4.230   2.068  1.00  0.00     0.040 A 
ATOM     13  C   UNL     1      23.836   3.965   0.120  1.00  0.00     0.013 A 
ATOM     14  C   UNL     1      24.540   3.790   2.425  1.00  0.00     0.013 A 
ATOM     15  F   UNL     1      27.324   4.958   0.397  1.00  0.00    -0.207 F 
ENDBRANCH   5   9
BRANCH   6  16
ATOM     16  C   UNL     1      22.476   0.750   1.552  1.00  0.00    -0.015 A 
ATOM     17  C   UNL     1      23.321   0.181   2.505  1.00  0.00     0.009 A 
ATOM     18  C   UNL     1      22.372   0.180   0.283  1.00  0.00     0.009 A 
ATOM     19  C   UNL     1      24.061  -0.959   2.190  1.00  0.00     0.001 A 
ATOM     20  C   UNL     1      23.113  -0.959  -0.032  1.00  0.00     0.001 A 
ATOM     21  C   UNL     1      23.957  -1.529   0.921  1.00  0.00     0.000 A 
ENDBRANCH   6  16
BRANCH   7  22
ATOM     22  C   UNL     1      18.847   4.033   2.921  1.00  0.00     0.031 C 
ATOM     23  C   UNL     1      18.331   3.523   4.287  1.00  0.00     0.014 C 
ATOM     24  C   UNL     1      17.712   3.940   1.876  1.00  0.00     0.014 C 
ENDBRANCH   7  22
BRANCH   8  25
ATOM     25  C   UNL     1      19.419   0.966   2.505  1.00  0.00     0.258 C 
ATOM     26  O   UNL     1      18.806   0.445   1.553  1.00  0.00    -0.269 OA
ATOM     27  N   UNL     1      19.210   0.591   3.846  1.00  0.00    -0.322 N 
ATOM     28  H   UNL     1      19.760   1.084   4.547  1.00  0.00     0.170 HD
BRANCH  27  29
ATOM     29  C   UNL     1      18.325  -0.385   4.369  1.00  0.00     0.041 A 
ATOM     30  C   UNL     1      16.973  -0.353   4.030  1.00  0.00     0.026 A 
ATOM     31  C   UNL     1      18.807  -1.377   5.223  1.00  0.00     0.026 A 
ATOM     32  C   UNL     1      16.102  -1.315   4.544  1.00  0.00     0.002 A 
ATOM     33  C   UNL     1      17.935  -2.338   5.738  1.00  0.00     0.002 A 
ATOM     34  C   UNL     1      16.583  -2.306   5.398  1.00  0.00     0.000 A 
ENDBRANCH  27  29
ENDBRANCH   8  25
ENDBRANCH   3   4
ENDBRANCH   2   3
ENDBRANCH   1   2
BRANCH   1  35
ATOM     35  O   UNL     1      23.340   7.278   2.251  1.00  0.00    -0.393 OA
ATOM     36  H   UNL     1      22.783   6.727   1.675  1.00  0.00     0.210 HD
ENDBRANCH   1  35
BRANCH   1  37
ATOM     37  C   UNL     1      22.083   8.584   3.822  1.00  0.00     0.064 C 
BRANCH  37  38
ATOM     38  C   UNL     1      22.942   9.713   4.410  1.00  0.00     0.128 C 
BRANCH  38  39
ATOM     39  O   UNL     1      23.332  10.596   3.362  1.00  0.00    -0.392 OA
ATOM     40  H   UNL     1      23.730  11.383   3.769  1.00  0.00     0.210 HD
ENDBRANCH  38  39
BRANCH  38  41
ATOM     41  C   UNL     1      22.233  10.495   5.516  1.00  0.00     0.154 C 
BRANCH  41  42
ATOM     42  C   UNL     1      22.699  10.054   6.882  1.00  0.00     0.305 C 
ATOM     43  O   UNL     1      21.944   9.777   7.805  1.00  0.00    -0.252 OA
BRANCH  42  44
ATOM     44  O   UNL     1      24.050  10.011   6.983  1.00  0.00    -0.481 OA
ATOM     45  H   UNL     1      24.489  10.414   6.203  1.00  0.00     0.296 HD
ENDBRANCH  42  44
ENDBRANCH  41  42
ENDBRANCH  38  41
ENDBRANCH  37  38
ENDBRANCH   1  37
TORSDOF 15
ENDMDL
MODEL 2
REMARK VINA RESULT:      -6.7      2.562      8.355
REMARK SMILES CC(C)c1c(C(=O)Nc2ccccc2)c(-c2ccccc2)c(-c2ccc(F)cc2)n1CC[C@@H](O)C[C@@H](O)CC(=O)O
REMARK SMILES IDX 33 1 32 2 31 3 30 4 22 5 15 6 4 7 5 8 23 9 26 10 25 11 28 12
REMARK SMILES IDX 24 13 29 14 27 15 16 16 17 17 21 18 18 19 20 20 19 21 2 22
REMARK SMILES IDX 1 23 3 24 6 25 7 26 8 27 9 29 10 30 14 31 11 32 13 33 12 34
REMARK SMILES IDX 34 35 35 37 36 38 37 39 38 41 39 42 40 43 41 44
REMARK H PARENT 8 28 34 36 37 40 41 45
ROOT
ATOM      1  C   UNL     1      18.788  -0.564   2.226  1.00  0.00     0.118 C 
ENDROOT
BRANCH   1   2
ATOM      2  C   UNL     1      19.937   0.375   1.831  1.00  0.00     0.053 C 
BRANCH   2   3
ATOM      3  C   UNL     1      20.604   1.082   3.018  1.00  0.00     0.125 C 
BRANCH   3   4
ATOM      4  N   UNL     1      21.391   2.249   2.637  1.00  0.00    -0.343 N 
ATOM      5  C   UNL     1      22.697   2.230   2.224  1.00  0.00     0.057 A 
ATOM      6  C   UNL     1      23.074   3.528   1.954  1.00  0.00     0.021 A 
ATOM      7  C   UNL     1      20.926   3.539   2.633  1.00  0.00     0.034 A 
ATOM      8  C   UNL     1      21.953   4.356   2.213  1.00  0.00     0.069 A 
BRANCH   5   9
ATOM      9  C   UNL     1      23.461   1.002   2.126  1.00  0.00    -0.001 A 
ATOM     10  C   UNL     1      24.933  -1.360   1.936  1.00  0.00     0.123 A 
ATOM     11  C   UNL     1      24.101  -0.969   0.885  1.00  0.00     0.040 A 
ATOM     12  C   UNL     1      25.027  -0.570   3.080  1.00  0.00     0.040 A 
ATOM     13  C   UNL     1      23.366   0.212   0.980  1.00  0.00     0.013 A 
ATOM     14  C   UNL     1      24.292   0.611   3.176  1.00  0.00     0.013 A 
ATOM     15  F   UNL     1      25.638  -2.494   1.844  1.00  0.00    -0.207 F 
ENDBRANCH   5   9
BRANCH   6  16
ATOM     16  C   UNL     1      24.385   3.895   1.497  1.00  0.00    -0.015 A 
ATOM     17  C   UNL     1      25.341   4.346   2.408  1.00  0.00     0.009 A 
ATOM     18  C   UNL     1      24.704   3.800   0.142  1.00  0.00     0.009 A 
ATOM     19  C   UNL     1      26.615   4.703   1.964  1.00  0.00     0.001 A 
ATOM     20  C   UNL     1      25.977   4.157  -0.302  1.00  0.00     0.001 A 
ATOM     21  C   UNL     1      26.932   4.609   0.609  1.00  0.00     0.000 A 
ENDBRANCH   6  16
BRANCH   7  22
ATOM     22  C   UNL     1      19.541   3.873   3.031  1.00  0.00     0.031 C 
ATOM     23  C   UNL     1      19.056   3.073   4.263  1.00  0.00     0.014 C 
ATOM     24  C   UNL     1      18.523   3.708   1.879  1.00  0.00     0.014 C 
ENDBRANCH   7  22
BRANCH   8  25
ATOM     25  C   UNL     1      21.855   5.782   2.078  1.00  0.00     0.258 C 
ATOM     26  O   UNL     1      21.147   6.305   1.195  1.00  0.00    -0.269 OA
ATOM     27  N   UNL     1      22.635   6.533   2.978  1.00  0.00    -0.322 N 
ATOM     28  H   UNL     1      23.181   6.004   3.656  1.00  0.00     0.170 HD
BRANCH  27  29
ATOM     29  C   UNL     1      22.779   7.940   3.071  1.00  0.00     0.041 A 
ATOM     30  C   UNL     1      23.599   8.618   2.170  1.00  0.00     0.026 A 
ATOM     31  C   UNL     1      22.098   8.646   4.064  1.00  0.00     0.026 A 
ATOM     32  C   UNL     1      23.739  10.004   2.262  1.00  0.00     0.002 A 
ATOM     33  C   UNL     1      22.239  10.031   4.155  1.00  0.00     0.002 A 
ATOM     34  C   UNL     1      23.060  10.710   3.254  1.00  0.00     0.000 A 
ENDBRANCH  27  29
ENDBRANCH   8  25
ENDBRANCH   3   4
ENDBRANCH   2   3
ENDBRANCH   1   2
BRANCH   1  35
ATOM     35  O   UNL     1      19.343  -1.665   2.952  1.00  0.00    -0.393 OA
ATOM     36  H   UNL     1      18.694  -1.928   3.627  1.00  0.00     0.210 HD
ENDBRANCH   1  35
BRANCH   1  37
ATOM     37  C   UNL     1      17.721   0.093   3.121  1.00  0.00     0.064 C 
BRANCH  37  38
ATOM     38  C   UNL     1      16.530  -0.776   3.548  1.00  0.00     0.128 C 
BRANCH  38  39
ATOM     39  O   UNL     1      16.633  -2.050   2.917  1.00  0.00    -0.392 OA
ATOM     40  H   UNL     1      16.057  -2.043   2.136  1.00  0.00     0.210 HD
ENDBRANCH  38  39
BRANCH  38  41
ATOM     41  C   UNL     1      16.424  -0.951   5.063  1.00  0.00     0.154 C 
BRANCH  41  42
ATOM     42  C   UNL     1      16.665  -2.385   5.466  1.00  0.00     0.305 C 
ATOM     43  O   UNL     1      15.776  -3.165   5.782  1.00  0.00    -0.252 OA
BRANCH  42  44
ATOM     44  O   UNL     1      17.980  -2.716   5.455  1.00  0.00    -0.481 OA
ATOM     45  H   UNL     1      18.268  -3.100   6.310  1.00  0.00     0.296 HD
ENDBRANCH  42  44
ENDBRANCH  41  42
ENDBRANCH  38  41
ENDBRANCH  37  38
ENDBRANCH   1  37
TORSDOF 15
ENDMDL
MODEL 3
REMARK VINA RESULT:      -6.7      3.010      6.095
REMARK SMILES CC(C)c1c(C(=O)Nc2ccccc2)c(-c2ccccc2)c(-c2ccc(F)cc2)n1CC[C@@H](O)C[C@@H](O)CC(=O)O
REMARK SMILES IDX 33 1 32 2 31 3 30 4 22 5 15 6 4 7 5 8 23 9 26 10 25 11 28 12
REMARK SMILES IDX 24 13 29 14 27 15 16 16 17 17 21 18 18 19 20 20 19 21 2 22
REMARK SMILES IDX 1 23 3 24 6 25 7 26 8 27 9 29 10 30 14 31 11 32 13 33 12 34
REMARK SMILES IDX 34 35 35 37 36 38 37 39 38 41 39 42 40 43 41 44
REMARK H PARENT 8 28 34 36 37 40 41 45
ROOT
ATOM      1  C   UNL     1      23.239   7.910   3.266  1.00  0.00     0.118 C 
ENDROOT
BRANCH   1   2
ATOM      2  C   UNL     1      22.449   6.614   3.029  1.00  0.00     0.053 C 
BRANCH   2   3
ATOM      3  C   UNL     1      22.425   6.154   1.565  1.00  0.00     0.125 C 
BRANCH   3   4
ATOM      4  N   UNL     1      22.631   4.720   1.399  1.00  0.00    -0.343 N 
ATOM      5  C   UNL     1      21.660   3.758   1.494  1.00  0.00     0.057 A 
ATOM      6  C   UNL     1      22.254   2.535   1.271  1.00  0.00     0.021 A 
ATOM      7  C   UNL     1      23.836   4.131   1.118  1.00  0.00     0.034 A 
ATOM      8  C   UNL     1      23.631   2.771   1.033  1.00  0.00     0.069 A 
BRANCH   5   9
ATOM      9  C   UNL     1      20.277   4.080   1.783  1.00  0.00    -0.001 A 
ATOM     10  C   UNL     1      17.615   4.703   2.341  1.00  0.00     0.123 A 
ATOM     11  C   UNL     1      18.466   4.295   3.368  1.00  0.00     0.040 A 
ATOM     12  C   UNL     1      18.095   4.799   1.035  1.00  0.00     0.040 A 
ATOM     13  C   UNL     1      19.797   3.984   3.090  1.00  0.00     0.013 A 
ATOM     14  C   UNL     1      19.425   4.488   0.756  1.00  0.00     0.013 A 
ATOM     15  F   UNL     1      16.338   5.000   2.608  1.00  0.00    -0.207 F 
ENDBRANCH   5   9
BRANCH   6  16
ATOM     16  C   UNL     1      21.538   1.290   1.293  1.00  0.00    -0.015 A 
ATOM     17  C   UNL     1      20.994   0.777   0.115  1.00  0.00     0.009 A 
ATOM     18  C   UNL     1      21.386   0.593   2.491  1.00  0.00     0.009 A 
ATOM     19  C   UNL     1      20.298  -0.432   0.135  1.00  0.00     0.001 A 
ATOM     20  C   UNL     1      20.690  -0.615   2.512  1.00  0.00     0.001 A 
ATOM     21  C   UNL     1      20.146  -1.128   1.334  1.00  0.00     0.000 A 
ENDBRANCH   6  16
BRANCH   7  22
ATOM     22  C   UNL     1      25.075   4.922   0.955  1.00  0.00     0.031 C 
ATOM     23  C   UNL     1      25.927   4.471  -0.255  1.00  0.00     0.014 C 
ATOM     24  C   UNL     1      25.956   4.937   2.226  1.00  0.00     0.014 C 
ENDBRANCH   7  22
BRANCH   8  25
ATOM     25  C   UNL     1      24.659   1.809   0.752  1.00  0.00     0.258 C 
ATOM     26  O   UNL     1      24.687   1.181  -0.324  1.00  0.00    -0.269 OA
ATOM     27  N   UNL     1      25.596   1.602   1.782  1.00  0.00    -0.322 N 
ATOM     28  H   UNL     1      25.478   2.165   2.623  1.00  0.00     0.170 HD
BRANCH  27  29
ATOM     29  C   UNL     1      26.692   0.704   1.821  1.00  0.00     0.041 A 
ATOM     30  C   UNL     1      27.902   1.055   1.223  1.00  0.00     0.026 A 
ATOM     31  C   UNL     1      26.561  -0.530   2.459  1.00  0.00     0.026 A 
ATOM     32  C   UNL     1      28.981   0.171   1.263  1.00  0.00     0.002 A 
ATOM     33  C   UNL     1      27.640  -1.413   2.498  1.00  0.00     0.002 A 
ATOM     34  C   UNL     1      28.850  -1.063   1.900  1.00  0.00     0.000 A 
ENDBRANCH  27  29
ENDBRANCH   8  25
ENDBRANCH   3   4
ENDBRANCH   2   3
ENDBRANCH   1   2
BRANCH   1  35
ATOM     35  O   UNL     1      23.748   8.356   2.006  1.00  0.00    -0.393 OA
ATOM     36  H   UNL     1      23.067   8.177   1.335  1.00  0.00     0.210 HD
ENDBRANCH   1  35
BRANCH   1  37
ATOM     37  C   UNL     1      22.400   9.055   3.862  1.00  0.00     0.064 C 
BRANCH  37  38
ATOM     38  C   UNL     1      23.063   9.922   4.942  1.00  0.00     0.128 C 
BRANCH  38  39
ATOM     39  O   UNL     1      23.650  11.066   4.326  1.00  0.00    -0.392 OA
ATOM     40  H   UNL     1      24.598  11.063   4.536  1.00  0.00     0.210 HD
ENDBRANCH  38  39
BRANCH  38  41
ATOM     41  C   UNL     1      22.095  10.360   6.041  1.00  0.00     0.154 C 
BRANCH  41  42
ATOM     42  C   UNL     1      22.638  10.031   7.410  1.00  0.00     0.305 C 
ATOM     43  O   UNL     1      21.936   9.832   8.394  1.00  0.00    -0.252 OA
BRANCH  42  44
ATOM     44  O   UNL     1      23.993   9.994   7.439  1.00  0.00    -0.481 OA
ATOM     45  H   UNL     1      24.356  10.478   8.211  1.00  0.00     0.296 HD
ENDBRANCH  42  44
ENDBRANCH  41  42
ENDBRANCH  38  41
ENDBRANCH  37  38
ENDBRANCH   1  37
TORSDOF 15
ENDMDL
