MODEL 1
REMARK VINA RESULT:      -7.0      0.000      0.000
REMARK SMILES C=C(c1ccc(C(=O)O)cc1)c1cc2c(cc1C)C(C)(C)CCC2(C)C
REMARK SMILES IDX 3 1 4 2 11 3 5 4 10 5 6 6 7 7 8 8 9 9 2 11 1 12 12 13 13 14
REMARK SMILES IDX 17 15 14 16 16 17 24 18 15 19 23 20 19 21 22 22 18 23 25 24
REMARK SMILES IDX 26 25 20 26 21 27
REMARK H PARENT 9 10
ROOT
ATOM      1  C   UNL     1      23.050  -9.109  15.995  1.00  0.00    -0.018 A 
ATOM      2  C   UNL     1      24.194  -9.198  15.242  1.00  0.00     0.009 A 
ATOM      3  C   UNL     1      22.031  -8.235  15.717  1.00  0.00     0.009 A 
ATOM      4  C   UNL     1      24.328  -8.355  14.138  1.00  0.00     0.016 A 
ATOM      5  C   UNL     1      22.164  -7.392  14.613  1.00  0.00     0.016 A 
ATOM      6  C   UNL     1      23.312  -7.452  13.824  1.00  0.00     0.059 A 
ENDROOT
BRANCH   6   7
ATOM      7  C   UNL     1      23.451  -6.574  12.673  1.00  0.00     0.335 C 
ATOM      8  O   UNL     1      23.825  -5.397  12.711  1.00  0.00    -0.246 OA
BRANCH   7   9
ATOM      9  O   UNL     1      23.122  -7.191  11.505  1.00  0.00    -0.478 OA
ATOM     10  H   UNL     1      22.722  -8.073  11.658  1.00  0.00     0.297 HD
ENDBRANCH   7   9
ENDBRANCH   6   7
BRANCH   1  11
ATOM     11  C   UNL     1      22.907 -10.015  17.182  1.00  0.00    -0.018 C 
ATOM     12  C   UNL     1      21.905 -10.933  17.122  1.00  0.00     0.018 C 
BRANCH  11  13
ATOM     13  C   UNL     1      23.756  -9.969  18.366  1.00  0.00    -0.015 A 
ATOM     14  C   UNL     1      23.557  -8.952  19.297  1.00  0.00     0.013 A 
ATOM     15  C   UNL     1      24.753 -10.907  18.577  1.00  0.00    -0.043 A 
ATOM     16  C   UNL     1      24.345  -8.848  20.466  1.00  0.00    -0.038 A 
ATOM     17  C   UNL     1      25.557 -10.816  19.711  1.00  0.00     0.008 A 
ATOM     18  C   UNL     1      24.067  -7.708  21.453  1.00  0.00    -0.010 C 
ATOM     19  C   UNL     1      25.390  -9.784  20.662  1.00  0.00    -0.038 A 
ATOM     20  C   UNL     1      24.778  -7.940  22.806  1.00  0.00     0.012 C 
ATOM     21  C   UNL     1      26.314  -9.740  21.885  1.00  0.00    -0.010 C 
ATOM     22  C   UNL     1      26.217  -8.386  22.624  1.00  0.00     0.012 C 
ATOM     23  C   UNL     1      24.992 -12.026  17.615  1.00  0.00     0.045 C 
ATOM     24  C   UNL     1      22.559  -7.573  21.770  1.00  0.00     0.016 C 
ATOM     25  C   UNL     1      24.551  -6.381  20.827  1.00  0.00     0.016 C 
ATOM     26  C   UNL     1      27.800  -9.918  21.493  1.00  0.00     0.016 C 
ATOM     27  C   UNL     1      25.925 -10.889  22.842  1.00  0.00     0.016 C 
ENDBRANCH  11  13
ENDBRANCH   1  11
TORSDOF 4
ENDMDL
MODEL 2
REMARK VINA RESULT:      -6.9     10.169     13.274
REMARK SMILES C=C(c1ccc(C(=O)O)cc1)c1cc2c(cc1C)C(C)(C)CCC2(C)C
REMARK SMILES IDX 3 1 4 2 11 3 5 4 10 5 6 6 7 7 8 8 9 9 2 11 1 12 12 13 13 14
REMARK SMILES IDX 17 15 14 16 16 17 24 18 15 19 23 20 19 21 22 22 18 23 25 24
REMARK SMILES IDX 26 25 20 26 21 27
REMARK H PARENT 9 10
ROOT
ATOM      1  C   UNL     1      19.528  -0.636   8.654  1.00  0.00    -0.018 A 
ATOM      2  C   UNL     1      19.567   0.552   7.967  1.00  0.00     0.009 A 
ATOM      3  C   UNL     1      19.011  -1.793   8.128  1.00  0.00     0.009 A 
ATOM      4  C   UNL     1      19.055   0.585   6.670  1.00  0.00     0.016 A 
ATOM      5  C   UNL     1      18.499  -1.761   6.831  1.00  0.00     0.016 A 
ATOM      6  C   UNL     1      18.521  -0.572   6.102  1.00  0.00     0.059 A 
ENDROOT
BRANCH   6   7
ATOM      7  C   UNL     1      17.987  -0.538   4.749  1.00  0.00     0.335 C 
ATOM      8  O   UNL     1      17.253   0.344   4.291  1.00  0.00    -0.246 OA
BRANCH   7   9
ATOM      9  O   UNL     1      18.387  -1.605   4.005  1.00  0.00    -0.478 OA
ATOM     10  H   UNL     1      17.957  -1.616   3.123  1.00  0.00     0.297 HD
ENDBRANCH   7   9
ENDBRANCH   6   7
BRANCH   1  11
ATOM     11  C   UNL     1      20.078  -0.671  10.049  1.00  0.00    -0.018 C 
ATOM     12  C   UNL     1      21.249  -1.342  10.217  1.00  0.00     0.018 C 
BRANCH  11  13
ATOM     13  C   UNL     1      19.447  -0.046  11.203  1.00  0.00    -0.015 A 
ATOM     14  C   UNL     1      18.933  -0.859  12.211  1.00  0.00     0.013 A 
ATOM     15  C   UNL     1      19.346   1.331  11.314  1.00  0.00    -0.043 A 
ATOM     16  C   UNL     1      18.307  -0.318  13.357  1.00  0.00    -0.038 A 
ATOM     17  C   UNL     1      18.716   1.890  12.424  1.00  0.00     0.008 A 
ATOM     18  C   UNL     1      17.768  -1.270  14.432  1.00  0.00    -0.010 C 
ATOM     19  C   UNL     1      18.168   1.089  13.451  1.00  0.00    -0.038 A 
ATOM     20  C   UNL     1      17.430  -0.520  15.741  1.00  0.00     0.012 C 
ATOM     21  C   UNL     1      17.484   1.769  14.643  1.00  0.00    -0.010 C 
ATOM     22  C   UNL     1      16.662   0.763  15.479  1.00  0.00     0.012 C 
ATOM     23  C   UNL     1      19.899   2.244  10.267  1.00  0.00     0.045 C 
ATOM     24  C   UNL     1      18.801  -2.360  14.808  1.00  0.00     0.016 C 
ATOM     25  C   UNL     1      16.503  -1.968  13.887  1.00  0.00     0.016 C 
ATOM     26  C   UNL     1      16.495   2.870  14.190  1.00  0.00     0.016 C 
ATOM     27  C   UNL     1      18.567   2.427  15.528  1.00  0.00     0.016 C 
ENDBRANCH  11  13
ENDBRANCH   1  11
TORSDOF 4
ENDMDL
MODEL 3
REMARK VINA RESULT:      -6.6     18.416     21.582
REMARK SMILES C=C(c1ccc(C(=O)O)cc1)c1cc2c(cc1C)C(C)(C)CCC2(C)C
REMARK SMILES IDX 3 1 4 2 11 3 5 4 10 5 6 6 7 7 8 8 9 9 2 11 1 12 12 13 13 14
REMARK SMILES IDX 17 15 14 16 16 17 24 18 15 19 23 20 19 21 22 22 18 23 25 24
REMARK SMILES IDX 26 25 20 26 21 27
REMARK H PARENT 9 10
ROOT
ATOM      1  C   UNL     1      23.044   7.455   2.682  1.00  0.00    -0.018 A 
ATOM      2  C   UNL     1      23.211   8.792   2.422  1.00  0.00     0.009 A 
ATOM      3  C   UNL     1      22.828   6.953   3.941  1.00  0.00     0.009 A 
ATOM      4  C   UNL     1      23.159   9.687   3.491  1.00  0.00     0.016 A 
ATOM      5  C   UNL     1      22.776   7.848   5.010  1.00  0.00     0.016 A 
ATOM      6  C   UNL     1      22.941   9.214   4.785  1.00  0.00     0.059 A 
ENDROOT
BRANCH   6   7
ATOM      7  C   UNL     1      22.886  10.147   5.900  1.00  0.00     0.335 C 
ATOM      8  O   UNL     1      22.014  11.004   6.074  1.00  0.00    -0.246 OA
BRANCH   7   9
ATOM      9  O   UNL     1      23.921   9.981   6.768  1.00  0.00    -0.478 OA
ATOM     10  H   UNL     1      24.242  10.838   7.121  1.00  0.00     0.297 HD
ENDBRANCH   7   9
ENDBRANCH   6   7
BRANCH   1  11
ATOM     11  C   UNL     1      23.101   6.493   1.532  1.00  0.00    -0.018 C 
ATOM     12  C   UNL     1      22.874   7.016   0.298  1.00  0.00     0.018 C 
BRANCH  11  13
ATOM     13  C   UNL     1      23.377   5.067   1.659  1.00  0.00    -0.015 A 
ATOM     14  C   UNL     1      22.308   4.174   1.666  1.00  0.00     0.013 A 
ATOM     15  C   UNL     1      24.671   4.589   1.776  1.00  0.00    -0.043 A 
ATOM     16  C   UNL     1      22.503   2.779   1.786  1.00  0.00    -0.038 A 
ATOM     17  C   UNL     1      24.891   3.220   1.916  1.00  0.00     0.008 A 
ATOM     18  C   UNL     1      21.282   1.851   1.781  1.00  0.00    -0.010 C 
ATOM     19  C   UNL     1      23.825   2.294   1.946  1.00  0.00    -0.038 A 
ATOM     20  C   UNL     1      21.690   0.374   1.583  1.00  0.00     0.012 C 
ATOM     21  C   UNL     1      24.138   0.801   2.108  1.00  0.00    -0.010 C 
ATOM     22  C   UNL     1      22.871  -0.012   2.456  1.00  0.00     0.012 C 
ATOM     23  C   UNL     1      25.850   5.508   1.755  1.00  0.00     0.045 C 
ATOM     24  C   UNL     1      20.304   2.192   0.631  1.00  0.00     0.016 C 
ATOM     25  C   UNL     1      20.531   2.013   3.120  1.00  0.00     0.016 C 
ATOM     26  C   UNL     1      25.149   0.544   3.251  1.00  0.00     0.016 C 
ATOM     27  C   UNL     1      24.753   0.278   0.791  1.00  0.00     0.016 C 
ENDBRANCH  11  13
ENDBRANCH   1  11
TORSDOF 4
ENDMDL
