82146
  -OEChem-12202512533D

 54 56  0     0  0  0  0  0  0999 V2000
    6.1672   -1.9222   -1.0330 O   0  0  0  0  0  0  0  0  0  0  0  0
    6.6076    0.2152   -1.6689 O   0  0  0  0  0  0  0  0  0  0  0  0
   -3.1314   -1.8872    0.3159 C   0  0  0  0  0  0  0  0  0  0  0  0
   -4.2164    0.6104   -1.0813 C   0  0  0  0  0  0  0  0  0  0  0  0
   -4.6109   -1.6924   -0.0837 C   0  0  0  0  0  0  0  0  0  0  0  0
   -4.7569   -0.8175   -1.3173 C   0  0  0  0  0  0  0  0  0  0  0  0
   -2.3563   -0.5638    0.2792 C   0  0  0  0  0  0  0  0  0  0  0  0
   -2.8550    0.5901   -0.3746 C   0  0  0  0  0  0  0  0  0  0  0  0
   -3.1403   -2.5110    1.7320 C   0  0  0  0  0  0  0  0  0  0  0  0
   -2.4536   -2.8848   -0.6495 C   0  0  0  0  0  0  0  0  0  0  0  0
   -4.1336    1.2814   -2.4732 C   0  0  0  0  0  0  0  0  0  0  0  0
   -5.2123    1.4127   -0.2146 C   0  0  0  0  0  0  0  0  0  0  0  0
   -1.0814   -0.4971    0.8849 C   0  0  0  0  0  0  0  0  0  0  0  0
   -2.0820    1.7723   -0.3381 C   0  0  0  0  0  0  0  0  0  0  0  0
   -0.3308    0.6770    0.8887 C   0  0  0  0  0  0  0  0  0  0  0  0
   -0.8356    1.8159    0.2836 C   0  0  0  0  0  0  0  0  0  0  0  0
    0.9765    0.6739    1.5319 C   0  0  0  0  0  0  0  0  0  0  0  0
   -0.0765    3.1034    0.2793 C   0  0  0  0  0  0  0  0  0  0  0  0
    2.2654    0.3400    0.8395 C   0  0  0  0  0  0  0  0  0  0  0  0
    1.0669    0.9909    2.8514 C   0  0  0  0  0  0  0  0  0  0  0  0
    2.9708    1.3584    0.2487 C   0  0  0  0  0  0  0  0  0  0  0  0
    2.6792   -0.9684    0.8298 C   0  0  0  0  0  0  0  0  0  0  0  0
    4.1688    1.0477   -0.3948 C   0  0  0  0  0  0  0  0  0  0  0  0
    3.8773   -1.2792    0.1865 C   0  0  0  0  0  0  0  0  0  0  0  0
    4.6221   -0.2711   -0.4259 C   0  0  0  0  0  0  0  0  0  0  0  0
    5.8712   -0.5949   -1.0965 C   0  0  0  0  0  0  0  0  0  0  0  0
   -5.1740   -1.2456    0.7454 H   0  0  0  0  0  0  0  0  0  0  0  0
   -5.0826   -2.6653   -0.2735 H   0  0  0  0  0  0  0  0  0  0  0  0
   -4.2339   -1.2887   -2.1590 H   0  0  0  0  0  0  0  0  0  0  0  0
   -5.8147   -0.7781   -1.6084 H   0  0  0  0  0  0  0  0  0  0  0  0
   -3.5123   -1.7974    2.4767 H   0  0  0  0  0  0  0  0  0  0  0  0
   -3.7862   -3.3965    1.7655 H   0  0  0  0  0  0  0  0  0  0  0  0
   -2.1457   -2.8363    2.0544 H   0  0  0  0  0  0  0  0  0  0  0  0
   -3.0150   -3.8245   -0.7052 H   0  0  0  0  0  0  0  0  0  0  0  0
   -2.3716   -2.4820   -1.6649 H   0  0  0  0  0  0  0  0  0  0  0  0
   -1.4367   -3.1333   -0.3232 H   0  0  0  0  0  0  0  0  0  0  0  0
   -5.0866    1.1916   -3.0083 H   0  0  0  0  0  0  0  0  0  0  0  0
   -3.9088    2.3513   -2.4116 H   0  0  0  0  0  0  0  0  0  0  0  0
   -3.3576    0.8154   -3.0920 H   0  0  0  0  0  0  0  0  0  0  0  0
   -6.2179    1.3960   -0.6500 H   0  0  0  0  0  0  0  0  0  0  0  0
   -5.2810    1.0167    0.8044 H   0  0  0  0  0  0  0  0  0  0  0  0
   -4.9140    2.4642   -0.1274 H   0  0  0  0  0  0  0  0  0  0  0  0
   -0.6635   -1.3845    1.3564 H   0  0  0  0  0  0  0  0  0  0  0  0
   -2.4627    2.6803   -0.8003 H   0  0  0  0  0  0  0  0  0  0  0  0
    0.4507    3.2870    1.2196 H   0  0  0  0  0  0  0  0  0  0  0  0
    0.6308    3.1214   -0.5549 H   0  0  0  0  0  0  0  0  0  0  0  0
   -0.7557    3.9547    0.1508 H   0  0  0  0  0  0  0  0  0  0  0  0
    0.1859    1.2461    3.4333 H   0  0  0  0  0  0  0  0  0  0  0  0
    2.0192    1.0021    3.3733 H   0  0  0  0  0  0  0  0  0  0  0  0
    2.6473    2.3922    0.2824 H   0  0  0  0  0  0  0  0  0  0  0  0
    2.1056   -1.7592    1.3041 H   0  0  0  0  0  0  0  0  0  0  0  0
    4.7370    1.8483   -0.8613 H   0  0  0  0  0  0  0  0  0  0  0  0
    4.1931   -2.3187    0.1863 H   0  0  0  0  0  0  0  0  0  0  0  0
    7.0113   -2.1299   -1.4876 H   0  0  0  0  0  0  0  0  0  0  0  0
  1 26  1  0  0  0  0
  1 54  1  0  0  0  0
  2 26  2  0  0  0  0
  3  5  1  0  0  0  0
  3  7  1  0  0  0  0
  3  9  1  0  0  0  0
  3 10  1  0  0  0  0
  4  6  1  0  0  0  0
  4  8  1  0  0  0  0
  4 11  1  0  0  0  0
  4 12  1  0  0  0  0
  5  6  1  0  0  0  0
  5 27  1  0  0  0  0
  5 28  1  0  0  0  0
  6 29  1  0  0  0  0
  6 30  1  0  0  0  0
  7  8  2  0  0  0  0
  7 13  1  0  0  0  0
  8 14  1  0  0  0  0
  9 31  1  0  0  0  0
  9 32  1  0  0  0  0
  9 33  1  0  0  0  0
 10 34  1  0  0  0  0
 10 35  1  0  0  0  0
 10 36  1  0  0  0  0
 11 37  1  0  0  0  0
 11 38  1  0  0  0  0
 11 39  1  0  0  0  0
 12 40  1  0  0  0  0
 12 41  1  0  0  0  0
 12 42  1  0  0  0  0
 13 15  2  0  0  0  0
 13 43  1  0  0  0  0
 14 16  2  0  0  0  0
 14 44  1  0  0  0  0
 15 16  1  0  0  0  0
 15 17  1  0  0  0  0
 16 18  1  0  0  0  0
 17 19  1  0  0  0  0
 17 20  2  0  0  0  0
 18 45  1  0  0  0  0
 18 46  1  0  0  0  0
 18 47  1  0  0  0  0
 19 21  2  0  0  0  0
 19 22  1  0  0  0  0
 20 48  1  0  0  0  0
 20 49  1  0  0  0  0
 21 23  1  0  0  0  0
 21 50  1  0  0  0  0
 22 24  2  0  0  0  0
 22 51  1  0  0  0  0
 23 25  2  0  0  0  0
 23 52  1  0  0  0  0
 24 25  1  0  0  0  0
 24 53  1  0  0  0  0
 25 26  1  0  0  0  0
M  END
> <PUBCHEM_COMPOUND_CID>
82146

> <PUBCHEM_CONFORMER_RMSD>
0.8

> <PUBCHEM_CONFORMER_DIVERSEORDER>
1
2
4
3

> <PUBCHEM_MMFF94_PARTIAL_CHARGES>
29
1 -0.65
13 -0.15
14 -0.15
15 0.03
16 -0.14
17 -0.06
18 0.14
19 0.03
2 -0.57
20 -0.3
21 -0.15
22 -0.15
23 -0.15
24 -0.15
25 0.09
26 0.63
3 0.14
4 0.14
43 0.15
44 0.15
48 0.15
49 0.15
50 0.15
51 0.15
52 0.15
53 0.15
54 0.5
7 -0.14
8 -0.14

> <PUBCHEM_EFFECTIVE_ROTOR_COUNT>
3.8

> <PUBCHEM_PHARMACOPHORE_FEATURES>
9
1 1 acceptor
1 2 acceptor
1 20 hydrophobe
3 1 2 26 anion
3 3 9 10 hydrophobe
3 4 11 12 hydrophobe
6 19 21 22 23 24 25 rings
6 3 4 5 6 7 8 rings
6 7 8 13 14 15 16 rings

> <PUBCHEM_HEAVY_ATOM_COUNT>
26

> <PUBCHEM_ATOM_DEF_STEREO_COUNT>
0

> <PUBCHEM_ATOM_UDEF_STEREO_COUNT>
0

> <PUBCHEM_BOND_DEF_STEREO_COUNT>
0

> <PUBCHEM_BOND_UDEF_STEREO_COUNT>
0

> <PUBCHEM_ISOTOPIC_ATOM_COUNT>
0

> <PUBCHEM_COMPONENT_COUNT>
1

> <PUBCHEM_CACTVS_TAUTO_COUNT>
1

> <PUBCHEM_CONFORMER_ID>
000140E200000001

> <PUBCHEM_MMFF94_ENERGY>
102.7105

> <PUBCHEM_FEATURE_SELFOVERLAP>
45.748

> <PUBCHEM_SHAPE_FINGERPRINT>
10 15 9583509911598055430
10498660 4 18114452414063294777
10674148 151 18059009476034995401
10692045 39 11747199278786802488
107951 10 17894912906467017435
12596602 18 13254788045313933158
12670546 177 18040711476418600044
12760667 363 17704078361050757934
12788726 201 18126843802860963273
13103583 49 14477249258019990790
13402501 40 18273495671615220575
13544592 145 18131060554675944409
13544653 18 17561365101739736600
13690498 29 18188775092676587503
13914758 101 14261355718016804241
14251757 5 18259702302887364493
14790565 3 18120368762343937261
15064986 266 18198923434840102264
15082195 135 18115037406802047916
15183329 4 18335980883093107884
15188451 53 13470394587640038805
15475509 8 18412259524436448981
15575132 122 16878772804655265677
15880784 105 15984808359466892710
17349148 13 13973682905655562017
17780758 139 13183017406440756566
17870717 6 18411418406129598367
1813 80 15410901773271230184
18222031 100 16271923809949328224
18393751 57 10737579293111492125
19784866 240 16056874741023985821
20871999 31 18259982695331941211
21033650 10 17676202455236092201
21307412 95 18272086128269191783
21756936 100 16225770709286997833
22182313 1 18195793275042851577
22393880 68 18260828211521421754
23198884 109 16950284005132042974
23559900 14 18412256264107917512
2838139 119 15213017181010112180
3004659 81 18408601448997221306
3737641 26 15338016161214969132
392239 28 9079112289144510351
4058900 60 17680415656031381373
4280585 95 18335974325205976824
437815 12 17489869327815008936
44062 13 18340764935606366079
46194498 28 18044370767153919109
484985 159 18059306421890536283
4938544 92 14045473189387222346
633830 44 15502648248601549864
6608658 132 16588014680682161277
6669772 16 17695914710980965612
6823239 73 18338505451916528824
70251023 43 17834390503785576395
7970288 3 16558751196315871046
9709674 26 18192698171828408033

> <PUBCHEM_SHAPE_MULTIPOLES>
523.33
13.24
2.71
1.82
14.49
0.38
-0.33
4.02
8.44
-2.06
-0.14
0.08
-0.19
1.56

> <PUBCHEM_SHAPE_SELFOVERLAP>
1132.194

> <PUBCHEM_SHAPE_VOLUME>
289.2

> <PUBCHEM_COORDINATE_TYPE>
2
5
10

$$$$
