MODEL 1
REMARK VINA RESULT:      -5.5      0.000      0.000
REMARK SMILES C=C(c1ccc(C(=O)O)cc1)c1cc2c(cc1C)C(C)(C)CCC2(C)C
REMARK SMILES IDX 3 1 4 2 11 3 5 4 10 5 6 6 7 7 8 8 9 9 2 11 1 12 12 13 13 14
REMARK SMILES IDX 17 15 14 16 16 17 24 18 15 19 23 20 19 21 22 22 18 23 25 24
REMARK SMILES IDX 26 25 20 26 21 27
REMARK H PARENT 9 10
ROOT
ATOM      1  C   UNL     1     -26.478   8.906 -51.931  1.00  0.00    -0.018 A 
ATOM      2  C   UNL     1     -26.961  10.179 -51.752  1.00  0.00     0.009 A 
ATOM      3  C   UNL     1     -25.985   8.137 -50.908  1.00  0.00     0.009 A 
ATOM      4  C   UNL     1     -26.948  10.718 -50.465  1.00  0.00     0.016 A 
ATOM      5  C   UNL     1     -25.972   8.675 -49.621  1.00  0.00     0.016 A 
ATOM      6  C   UNL     1     -26.454   9.966 -49.399  1.00  0.00     0.059 A 
ENDROOT
BRANCH   6   7
ATOM      7  C   UNL     1     -26.441  10.527 -48.058  1.00  0.00     0.335 C 
ATOM      8  O   UNL     1     -27.332  10.385 -47.213  1.00  0.00    -0.246 OA
BRANCH   7   9
ATOM      9  O   UNL     1     -25.314  11.247 -47.806  1.00  0.00    -0.478 OA
ATOM     10  H   UNL     1     -24.503  10.753 -48.052  1.00  0.00     0.297 HD
ENDBRANCH   7   9
ENDBRANCH   6   7
BRANCH   1  11
ATOM     11  C   UNL     1     -26.492   8.327 -53.314  1.00  0.00    -0.018 C 
ATOM     12  C   UNL     1     -27.204   9.014 -54.247  1.00  0.00     0.018 C 
BRANCH  11  13
ATOM     13  C   UNL     1     -25.804   7.103 -53.706  1.00  0.00    -0.015 A 
ATOM     14  C   UNL     1     -26.552   5.943 -53.894  1.00  0.00     0.013 A 
ATOM     15  C   UNL     1     -24.432   7.072 -53.889  1.00  0.00    -0.043 A 
ATOM     16  C   UNL     1     -25.949   4.722 -54.273  1.00  0.00    -0.038 A 
ATOM     17  C   UNL     1     -23.810   5.877 -54.243  1.00  0.00     0.008 A 
ATOM     18  C   UNL     1     -26.833   3.484 -54.470  1.00  0.00    -0.010 C 
ATOM     19  C   UNL     1     -24.540   4.681 -54.421  1.00  0.00    -0.038 A 
ATOM     20  C   UNL     1     -26.072   2.351 -55.196  1.00  0.00     0.012 C 
ATOM     21  C   UNL     1     -23.792   3.399 -54.806  1.00  0.00    -0.010 C 
ATOM     22  C   UNL     1     -24.679   2.146 -54.628  1.00  0.00     0.012 C 
ATOM     23  C   UNL     1     -23.590   8.296 -53.715  1.00  0.00     0.045 C 
ATOM     24  C   UNL     1     -28.079   3.795 -55.332  1.00  0.00     0.016 C 
ATOM     25  C   UNL     1     -27.311   2.992 -53.086  1.00  0.00     0.016 C 
ATOM     26  C   UNL     1     -22.540   3.176 -53.925  1.00  0.00     0.016 C 
ATOM     27  C   UNL     1     -23.334   3.515 -56.277  1.00  0.00     0.016 C 
ENDBRANCH  11  13
ENDBRANCH   1  11
TORSDOF 4
ENDMDL
MODEL 2
REMARK VINA RESULT:      -5.4      3.579      7.856
REMARK SMILES C=C(c1ccc(C(=O)O)cc1)c1cc2c(cc1C)C(C)(C)CCC2(C)C
REMARK SMILES IDX 3 1 4 2 11 3 5 4 10 5 6 6 7 7 8 8 9 9 2 11 1 12 12 13 13 14
REMARK SMILES IDX 17 15 14 16 16 17 24 18 15 19 23 20 19 21 22 22 18 23 25 24
REMARK SMILES IDX 26 25 20 26 21 27
REMARK H PARENT 9 10
ROOT
ATOM      1  C   UNL     1     -26.529   5.816 -53.998  1.00  0.00    -0.018 A 
ATOM      2  C   UNL     1     -27.054   4.652 -53.492  1.00  0.00     0.009 A 
ATOM      3  C   UNL     1     -25.245   5.920 -54.469  1.00  0.00     0.009 A 
ATOM      4  C   UNL     1     -26.242   3.519 -53.455  1.00  0.00     0.016 A 
ATOM      5  C   UNL     1     -24.432   4.787 -54.432  1.00  0.00     0.016 A 
ATOM      6  C   UNL     1     -24.930   3.586 -53.925  1.00  0.00     0.059 A 
ENDROOT
BRANCH   6   7
ATOM      7  C   UNL     1     -24.083   2.405 -53.887  1.00  0.00     0.335 C 
ATOM      8  O   UNL     1     -23.066   2.275 -53.197  1.00  0.00    -0.246 OA
BRANCH   7   9
ATOM      9  O   UNL     1     -24.529   1.417 -54.710  1.00  0.00    -0.478 OA
ATOM     10  H   UNL     1     -24.925   0.674 -54.206  1.00  0.00     0.297 HD
ENDBRANCH   7   9
ENDBRANCH   6   7
BRANCH   1  11
ATOM     11  C   UNL     1     -27.403   7.034 -54.037  1.00  0.00    -0.018 C 
ATOM     12  C   UNL     1     -28.169   7.189 -55.150  1.00  0.00     0.018 C 
BRANCH  11  13
ATOM     13  C   UNL     1     -27.476   8.035 -52.980  1.00  0.00    -0.015 A 
ATOM     14  C   UNL     1     -26.522   9.050 -52.949  1.00  0.00     0.013 A 
ATOM     15  C   UNL     1     -28.466   7.993 -52.013  1.00  0.00    -0.043 A 
ATOM     16  C   UNL     1     -26.533  10.051 -51.952  1.00  0.00    -0.038 A 
ATOM     17  C   UNL     1     -28.488   8.957 -51.007  1.00  0.00     0.008 A 
ATOM     18  C   UNL     1     -25.456  11.143 -51.979  1.00  0.00    -0.010 C 
ATOM     19  C   UNL     1     -27.522   9.986 -50.939  1.00  0.00    -0.038 A 
ATOM     20  C   UNL     1     -25.813  12.319 -51.042  1.00  0.00     0.012 C 
ATOM     21  C   UNL     1     -27.602  11.011 -49.802  1.00  0.00    -0.010 C 
ATOM     22  C   UNL     1     -26.302  11.838 -49.687  1.00  0.00     0.012 C 
ATOM     23  C   UNL     1     -29.521   6.935 -52.016  1.00  0.00     0.045 C 
ATOM     24  C   UNL     1     -25.285  11.749 -53.393  1.00  0.00     0.016 C 
ATOM     25  C   UNL     1     -24.109  10.521 -51.551  1.00  0.00     0.016 C 
ATOM     26  C   UNL     1     -27.811  10.333 -48.427  1.00  0.00     0.016 C 
ATOM     27  C   UNL     1     -28.801  11.950 -50.065  1.00  0.00     0.016 C 
ENDBRANCH  11  13
ENDBRANCH   1  11
TORSDOF 4
ENDMDL
MODEL 3
REMARK VINA RESULT:      -5.3      3.801      7.640
REMARK SMILES C=C(c1ccc(C(=O)O)cc1)c1cc2c(cc1C)C(C)(C)CCC2(C)C
REMARK SMILES IDX 3 1 4 2 11 3 5 4 10 5 6 6 7 7 8 8 9 9 2 11 1 12 12 13 13 14
REMARK SMILES IDX 17 15 14 16 16 17 24 18 15 19 23 20 19 21 22 22 18 23 25 24
REMARK SMILES IDX 26 25 20 26 21 27
REMARK H PARENT 9 10
ROOT
ATOM      1  C   UNL     1     -27.499   5.323 -53.446  1.00  0.00    -0.018 A 
ATOM      2  C   UNL     1     -28.359   4.572 -54.208  1.00  0.00     0.009 A 
ATOM      3  C   UNL     1     -26.177   5.003 -53.266  1.00  0.00     0.009 A 
ATOM      4  C   UNL     1     -27.866   3.426 -54.831  1.00  0.00     0.016 A 
ATOM      5  C   UNL     1     -25.683   3.856 -53.889  1.00  0.00     0.016 A 
ATOM      6  C   UNL     1     -26.527   3.068 -54.671  1.00  0.00     0.059 A 
ENDROOT
BRANCH   6   7
ATOM      7  C   UNL     1     -26.011   1.873 -55.320  1.00  0.00     0.335 C 
ATOM      8  O   UNL     1     -26.578   1.247 -56.222  1.00  0.00    -0.246 OA
BRANCH   7   9
ATOM      9  O   UNL     1     -24.801   1.494 -54.827  1.00  0.00    -0.478 OA
ATOM     10  H   UNL     1     -24.880   1.088 -53.937  1.00  0.00     0.297 HD
ENDBRANCH   7   9
ENDBRANCH   6   7
BRANCH   1  11
ATOM     11  C   UNL     1     -28.031   6.556 -52.777  1.00  0.00    -0.018 C 
ATOM     12  C   UNL     1     -29.304   6.483 -52.305  1.00  0.00     0.018 C 
BRANCH  11  13
ATOM     13  C   UNL     1     -27.281   7.794 -52.609  1.00  0.00    -0.015 A 
ATOM     14  C   UNL     1     -26.755   8.097 -51.355  1.00  0.00     0.013 A 
ATOM     15  C   UNL     1     -27.087   8.670 -53.664  1.00  0.00    -0.043 A 
ATOM     16  C   UNL     1     -26.020   9.281 -51.122  1.00  0.00    -0.038 A 
ATOM     17  C   UNL     1     -26.382   9.854 -53.457  1.00  0.00     0.008 A 
ATOM     18  C   UNL     1     -25.464   9.550 -49.718  1.00  0.00    -0.010 C 
ATOM     19  C   UNL     1     -25.856  10.196 -52.192  1.00  0.00    -0.038 A 
ATOM     20  C   UNL     1     -24.423  10.692 -49.727  1.00  0.00     0.012 C 
ATOM     21  C   UNL     1     -25.094  11.518 -52.033  1.00  0.00    -0.010 C 
ATOM     22  C   UNL     1     -24.890  11.883 -50.545  1.00  0.00     0.012 C 
ATOM     23  C   UNL     1     -27.616   8.379 -55.031  1.00  0.00     0.045 C 
ATOM     24  C   UNL     1     -24.746   8.310 -49.134  1.00  0.00     0.016 C 
ATOM     25  C   UNL     1     -26.636   9.917 -48.782  1.00  0.00     0.016 C 
ATOM     26  C   UNL     1     -25.856  12.703 -52.672  1.00  0.00     0.016 C 
ATOM     27  C   UNL     1     -23.724  11.388 -52.735  1.00  0.00     0.016 C 
ENDBRANCH  11  13
ENDBRANCH   1  11
TORSDOF 4
ENDMDL
