MODEL 1
REMARK VINA RESULT:      -5.8      0.000      0.000
REMARK SMILES Cn1c(=O)c2c(ncn2C)n(C)c1=O
REMARK SMILES IDX 4 1 14 2 11 3 9 4 2 5 7 6 5 7 6 8 3 9 13 10 8 11 12 12 10 13
REMARK SMILES IDX 1 14
REMARK H PARENT
ROOT
ATOM      1  O   UNL     1      19.882  -1.611  12.893  1.00  0.00    -0.267 OA
ATOM      2  O   UNL     1      16.719   0.979  15.196  1.00  0.00    -0.247 OA
ATOM      3  N   UNL     1      17.592   1.822  13.212  1.00  0.00    -0.279 N 
ATOM      4  N   UNL     1      19.929   0.618  10.898  1.00  0.00    -0.328 N 
ATOM      5  N   UNL     1      18.297  -0.332  14.065  1.00  0.00    -0.261 N 
ATOM      6  N   UNL     1      18.682   2.454  11.097  1.00  0.00    -0.218 NA
ATOM      7  C   UNL     1      19.215   0.471  12.052  1.00  0.00     0.152 A 
ATOM      8  C   UNL     1      18.460   1.607  12.150  1.00  0.00     0.167 A 
ATOM      9  C   UNL     1      19.199  -0.596  13.000  1.00  0.00     0.282 A 
ATOM     10  C   UNL     1      17.476   0.841  14.228  1.00  0.00     0.332 A 
ATOM     11  C   UNL     1      19.574   1.827  10.359  1.00  0.00     0.202 A 
ATOM     12  C   UNL     1      16.804   3.047  13.280  1.00  0.00     0.157 C 
ATOM     13  C   UNL     1      20.881  -0.307  10.330  1.00  0.00     0.151 C 
ATOM     14  C   UNL     1      18.191  -1.354  15.101  1.00  0.00     0.159 C 
ENDROOT
TORSDOF 0
ENDMDL
MODEL 2
REMARK VINA RESULT:      -5.7      1.680      4.275
REMARK SMILES Cn1c(=O)c2c(ncn2C)n(C)c1=O
REMARK SMILES IDX 4 1 14 2 11 3 9 4 2 5 7 6 5 7 6 8 3 9 13 10 8 11 12 12 10 13
REMARK SMILES IDX 1 14
REMARK H PARENT
ROOT
ATOM      1  O   UNL     1      16.632   1.611  15.010  1.00  0.00    -0.267 OA
ATOM      2  O   UNL     1      18.597   2.790  10.915  1.00  0.00    -0.247 OA
ATOM      3  N   UNL     1      19.285   0.815  11.934  1.00  0.00    -0.279 N 
ATOM      4  N   UNL     1      18.394  -0.806  14.908  1.00  0.00    -0.328 N 
ATOM      5  N   UNL     1      17.602   2.223  12.959  1.00  0.00    -0.261 N 
ATOM      6  N   UNL     1      19.812  -1.206  13.237  1.00  0.00    -0.218 NA
ATOM      7  C   UNL     1      18.260   0.236  14.036  1.00  0.00     0.152 A 
ATOM      8  C   UNL     1      19.138  -0.034  13.023  1.00  0.00     0.167 A 
ATOM      9  C   UNL     1      17.417   1.386  14.092  1.00  0.00     0.282 A 
ATOM     10  C   UNL     1      18.508   1.998  11.860  1.00  0.00     0.332 A 
ATOM     11  C   UNL     1      19.340  -1.647  14.384  1.00  0.00     0.202 A 
ATOM     12  C   UNL     1      20.232   0.491  10.874  1.00  0.00     0.157 C 
ATOM     13  C   UNL     1      17.688  -1.007  16.152  1.00  0.00     0.151 C 
ATOM     14  C   UNL     1      16.792   3.435  12.901  1.00  0.00     0.159 C 
ENDROOT
TORSDOF 0
ENDMDL
MODEL 3
REMARK VINA RESULT:      -5.5      1.407      3.011
REMARK SMILES Cn1c(=O)c2c(ncn2C)n(C)c1=O
REMARK SMILES IDX 4 1 14 2 11 3 9 4 2 5 7 6 5 7 6 8 3 9 13 10 8 11 12 12 10 13
REMARK SMILES IDX 1 14
REMARK H PARENT
ROOT
ATOM      1  O   UNL     1      18.044   2.903  11.637  1.00  0.00    -0.267 OA
ATOM      2  O   UNL     1      17.153   0.411  15.512  1.00  0.00    -0.247 OA
ATOM      3  N   UNL     1      18.543  -0.527  13.900  1.00  0.00    -0.279 N 
ATOM      4  N   UNL     1      19.720   0.574  10.791  1.00  0.00    -0.328 N 
ATOM      5  N   UNL     1      17.582   1.674  13.587  1.00  0.00    -0.261 N 
ATOM      6  N   UNL     1      19.969  -1.260  12.033  1.00  0.00    -0.218 NA
ATOM      7  C   UNL     1      18.981   0.775  11.920  1.00  0.00     0.152 A 
ATOM      8  C   UNL     1      19.151  -0.361  12.663  1.00  0.00     0.167 A 
ATOM      9  C   UNL     1      18.183   1.889  12.317  1.00  0.00     0.282 A 
ATOM     10  C   UNL     1      17.720   0.504  14.417  1.00  0.00     0.332 A 
ATOM     11  C   UNL     1      20.296  -0.665  10.904  1.00  0.00     0.202 A 
ATOM     12  C   UNL     1      18.749  -1.753  14.661  1.00  0.00     0.157 C 
ATOM     13  C   UNL     1      19.882   1.475   9.674  1.00  0.00     0.151 C 
ATOM     14  C   UNL     1      16.740   2.748  14.103  1.00  0.00     0.159 C 
ENDROOT
TORSDOF 0
ENDMDL
