MODEL 1
REMARK VINA RESULT:      -3.7      0.000      0.000
REMARK SMILES Cn1c(=O)c2c(ncn2C)n(C)c1=O
REMARK SMILES IDX 4 1 14 2 11 3 9 4 2 5 7 6 5 7 6 8 3 9 13 10 8 11 12 12 10 13
REMARK SMILES IDX 1 14
REMARK H PARENT
ROOT
ATOM      1  O   UNL     1     -10.802   2.478 -40.310  1.00  0.00    -0.267 OA
ATOM      2  O   UNL     1     -10.679  -1.027 -43.427  1.00  0.00    -0.247 OA
ATOM      3  N   UNL     1     -11.704   0.964 -44.055  1.00  0.00    -0.279 N 
ATOM      4  N   UNL     1     -12.246   4.018 -42.429  1.00  0.00    -0.328 N 
ATOM      5  N   UNL     1     -10.728   0.707 -41.854  1.00  0.00    -0.261 N 
ATOM      6  N   UNL     1     -12.717   3.175 -44.437  1.00  0.00    -0.218 NA
ATOM      7  C   UNL     1     -11.754   2.745 -42.433  1.00  0.00     0.152 A 
ATOM      8  C   UNL     1     -12.054   2.252 -43.673  1.00  0.00     0.167 A 
ATOM      9  C   UNL     1     -11.066   2.017 -41.417  1.00  0.00     0.282 A 
ATOM     10  C   UNL     1     -11.015   0.128 -43.142  1.00  0.00     0.332 A 
ATOM     11  C   UNL     1     -12.818   4.230 -43.657  1.00  0.00     0.202 A 
ATOM     12  C   UNL     1     -12.043   0.475 -45.387  1.00  0.00     0.157 C 
ATOM     13  C   UNL     1     -12.192   4.979 -41.352  1.00  0.00     0.151 C 
ATOM     14  C   UNL     1     -10.018  -0.138 -40.900  1.00  0.00     0.159 C 
ENDROOT
TORSDOF 0
ENDMDL
MODEL 2
REMARK VINA RESULT:      -3.6      1.756      4.004
REMARK SMILES Cn1c(=O)c2c(ncn2C)n(C)c1=O
REMARK SMILES IDX 4 1 14 2 11 3 9 4 2 5 7 6 5 7 6 8 3 9 13 10 8 11 12 12 10 13
REMARK SMILES IDX 1 14
REMARK H PARENT
ROOT
ATOM      1  O   UNL     1     -12.903   3.804 -43.651  1.00  0.00    -0.267 OA
ATOM      2  O   UNL     1     -10.747   2.828 -39.600  1.00  0.00    -0.247 OA
ATOM      3  N   UNL     1     -10.696   1.224 -41.284  1.00  0.00    -0.279 N 
ATOM      4  N   UNL     1     -11.996   1.094 -44.534  1.00  0.00    -0.328 N 
ATOM      5  N   UNL     1     -11.831   3.339 -41.613  1.00  0.00    -0.261 N 
ATOM      6  N   UNL     1     -10.807  -0.273 -43.235  1.00  0.00    -0.218 NA
ATOM      7  C   UNL     1     -11.813   1.753 -43.352  1.00  0.00     0.152 A 
ATOM      8  C   UNL     1     -11.083   0.896 -42.577  1.00  0.00     0.167 A 
ATOM      9  C   UNL     1     -12.250   3.047 -42.939  1.00  0.00     0.282 A 
ATOM     10  C   UNL     1     -11.063   2.482 -40.744  1.00  0.00     0.332 A 
ATOM     11  C   UNL     1     -11.373  -0.122 -44.414  1.00  0.00     0.202 A 
ATOM     12  C   UNL     1      -9.917   0.283 -40.489  1.00  0.00     0.157 C 
ATOM     13  C   UNL     1     -12.706   1.561 -45.701  1.00  0.00     0.151 C 
ATOM     14  C   UNL     1     -12.217   4.638 -41.075  1.00  0.00     0.159 C 
ENDROOT
TORSDOF 0
ENDMDL
MODEL 3
REMARK VINA RESULT:      -3.6      1.508      3.109
REMARK SMILES Cn1c(=O)c2c(ncn2C)n(C)c1=O
REMARK SMILES IDX 4 1 14 2 11 3 9 4 2 5 7 6 5 7 6 8 3 9 13 10 8 11 12 12 10 13
REMARK SMILES IDX 1 14
REMARK H PARENT
ROOT
ATOM      1  O   UNL     1     -13.034   3.545 -43.678  1.00  0.00    -0.267 OA
ATOM      2  O   UNL     1     -11.070  -0.692 -44.138  1.00  0.00    -0.247 OA
ATOM      3  N   UNL     1     -10.664   0.499 -42.182  1.00  0.00    -0.279 N 
ATOM      4  N   UNL     1     -11.682   3.639 -41.010  1.00  0.00    -0.328 N 
ATOM      5  N   UNL     1     -12.061   1.421 -43.932  1.00  0.00    -0.261 N 
ATOM      6  N   UNL     1     -10.412   1.981 -40.232  1.00  0.00    -0.218 NA
ATOM      7  C   UNL     1     -11.684   2.672 -41.974  1.00  0.00     0.152 A 
ATOM      8  C   UNL     1     -10.901   1.670 -41.473  1.00  0.00     0.167 A 
ATOM      9  C   UNL     1     -12.331   2.635 -43.245  1.00  0.00     0.282 A 
ATOM     10  C   UNL     1     -11.247   0.329 -43.462  1.00  0.00     0.332 A 
ATOM     11  C   UNL     1     -10.903   3.177 -39.982  1.00  0.00     0.202 A 
ATOM     12  C   UNL     1      -9.822  -0.546 -41.612  1.00  0.00     0.157 C 
ATOM     13  C   UNL     1     -12.362   4.913 -41.042  1.00  0.00     0.151 C 
ATOM     14  C   UNL     1     -12.671   1.264 -45.248  1.00  0.00     0.159 C 
ENDROOT
TORSDOF 0
ENDMDL
