MODEL 1
REMARK VINA RESULT:      -5.4      0.000      0.000
REMARK SMILES NC(=O)N1c2ccccc2C=Cc2ccccc21
REMARK SMILES IDX 3 1 4 2 1 3 5 4 18 5 10 6 13 7 11 8 12 9 6 10 17 11 9 12
REMARK SMILES IDX 14 13 2 14 7 15 16 16 8 17 15 18
REMARK H PARENT 1 19 1 20
ROOT
ATOM      1  O   UNL     1     -15.522   6.793 -40.004  1.00  0.00    -0.248 OA
ATOM      2  N   UNL     1     -13.467   5.726 -40.426  1.00  0.00    -0.262 N 
ATOM      3  N   UNL     1     -14.754   5.300 -38.484  1.00  0.00    -0.351 N 
ATOM      4  C   UNL     1     -13.223   6.416 -41.665  1.00  0.00     0.058 A 
ATOM      5  C   UNL     1     -12.355   4.968 -39.922  1.00  0.00     0.058 A 
ATOM      6  C   UNL     1     -12.808   5.749 -42.834  1.00  0.00    -0.001 A 
ATOM      7  C   UNL     1     -11.728   3.949 -40.662  1.00  0.00    -0.001 A 
ATOM      8  C   UNL     1     -12.676   4.292 -42.933  1.00  0.00     0.011 C 
ATOM      9  C   UNL     1     -12.200   3.495 -41.972  1.00  0.00     0.011 C 
ATOM     10  C   UNL     1     -13.408   7.812 -41.716  1.00  0.00     0.027 A 
ATOM     11  C   UNL     1     -11.854   5.279 -38.641  1.00  0.00     0.027 A 
ATOM     12  C   UNL     1     -12.610   6.485 -44.017  1.00  0.00     0.010 A 
ATOM     13  C   UNL     1     -10.650   3.246 -40.094  1.00  0.00     0.010 A 
ATOM     14  C   UNL     1     -14.620   6.024 -39.658  1.00  0.00     0.323 C 
ATOM     15  C   UNL     1     -13.193   8.530 -42.893  1.00  0.00     0.002 A 
ATOM     16  C   UNL     1     -10.773   4.585 -38.098  1.00  0.00     0.002 A 
ATOM     17  C   UNL     1     -12.795   7.865 -44.045  1.00  0.00     0.001 A 
ATOM     18  C   UNL     1     -10.173   3.565 -38.823  1.00  0.00     0.001 A 
ATOM     19  H   UNL     1     -15.557   5.452 -37.883  1.00  0.00     0.161 HD
ATOM     20  H   UNL     1     -14.162   4.517 -38.233  1.00  0.00     0.161 HD
ENDROOT
TORSDOF 0
ENDMDL
MODEL 2
REMARK VINA RESULT:      -5.1      2.023      4.176
REMARK SMILES NC(=O)N1c2ccccc2C=Cc2ccccc21
REMARK SMILES IDX 3 1 4 2 1 3 5 4 18 5 10 6 13 7 11 8 12 9 6 10 17 11 9 12
REMARK SMILES IDX 14 13 2 14 7 15 16 16 8 17 15 18
REMARK H PARENT 1 19 1 20
ROOT
ATOM      1  O   UNL     1     -10.254   3.736 -39.760  1.00  0.00    -0.248 OA
ATOM      2  N   UNL     1     -12.152   4.945 -40.451  1.00  0.00    -0.262 N 
ATOM      3  N   UNL     1     -11.028   5.383 -38.413  1.00  0.00    -0.351 N 
ATOM      4  C   UNL     1     -12.336   4.200 -41.668  1.00  0.00     0.058 A 
ATOM      5  C   UNL     1     -13.234   5.825 -40.106  1.00  0.00     0.058 A 
ATOM      6  C   UNL     1     -12.571   4.823 -42.909  1.00  0.00    -0.001 A 
ATOM      7  C   UNL     1     -13.691   6.845 -40.962  1.00  0.00    -0.001 A 
ATOM      8  C   UNL     1     -12.560   6.277 -43.101  1.00  0.00     0.011 C 
ATOM      9  C   UNL     1     -13.053   7.171 -42.240  1.00  0.00     0.011 C 
ATOM     10  C   UNL     1     -12.274   2.792 -41.622  1.00  0.00     0.027 A 
ATOM     11  C   UNL     1     -13.884   5.641 -38.869  1.00  0.00     0.027 A 
ATOM     12  C   UNL     1     -12.719   4.032 -44.063  1.00  0.00     0.010 A 
ATOM     13  C   UNL     1     -14.751   7.671 -40.548  1.00  0.00     0.010 A 
ATOM     14  C   UNL     1     -11.112   4.599 -39.552  1.00  0.00     0.323 C 
ATOM     15  C   UNL     1     -12.438   2.021 -42.774  1.00  0.00     0.002 A 
ATOM     16  C   UNL     1     -14.945   6.458 -38.479  1.00  0.00     0.002 A 
ATOM     17  C   UNL     1     -12.659   2.643 -43.995  1.00  0.00     0.001 A 
ATOM     18  C   UNL     1     -15.377   7.476 -39.318  1.00  0.00     0.001 A 
ATOM     19  H   UNL     1     -10.305   5.203 -37.724  1.00  0.00     0.161 HD
ATOM     20  H   UNL     1     -11.568   6.228 -38.268  1.00  0.00     0.161 HD
ENDROOT
TORSDOF 0
ENDMDL
MODEL 3
REMARK VINA RESULT:      -5.0     16.762     18.381
REMARK SMILES NC(=O)N1c2ccccc2C=Cc2ccccc21
REMARK SMILES IDX 3 1 4 2 1 3 5 4 18 5 10 6 13 7 11 8 12 9 6 10 17 11 9 12
REMARK SMILES IDX 14 13 2 14 7 15 16 16 8 17 15 18
REMARK H PARENT 1 19 1 20
ROOT
ATOM      1  O   UNL     1     -28.596   7.788 -53.871  1.00  0.00    -0.248 OA
ATOM      2  N   UNL     1     -26.688   6.425 -53.661  1.00  0.00    -0.262 N 
ATOM      3  N   UNL     1     -28.449   5.936 -55.167  1.00  0.00    -0.351 N 
ATOM      4  C   UNL     1     -26.082   7.222 -52.627  1.00  0.00     0.058 A 
ATOM      5  C   UNL     1     -26.058   5.156 -53.899  1.00  0.00     0.058 A 
ATOM      6  C   UNL     1     -24.726   7.604 -52.663  1.00  0.00    -0.001 A 
ATOM      7  C   UNL     1     -24.700   5.031 -54.245  1.00  0.00    -0.001 A 
ATOM      8  C   UNL     1     -23.831   7.314 -53.787  1.00  0.00     0.011 C 
ATOM      9  C   UNL     1     -23.820   6.176 -54.488  1.00  0.00     0.011 C 
ATOM     10  C   UNL     1     -26.872   7.641 -51.538  1.00  0.00     0.027 A 
ATOM     11  C   UNL     1     -26.828   3.984 -53.753  1.00  0.00     0.027 A 
ATOM     12  C   UNL     1     -24.206   8.404 -51.628  1.00  0.00     0.010 A 
ATOM     13  C   UNL     1     -24.160   3.752 -54.471  1.00  0.00     0.010 A 
ATOM     14  C   UNL     1     -27.962   6.773 -54.176  1.00  0.00     0.323 C 
ATOM     15  C   UNL     1     -26.336   8.422 -50.512  1.00  0.00     0.002 A 
ATOM     16  C   UNL     1     -26.274   2.722 -53.964  1.00  0.00     0.002 A 
ATOM     17  C   UNL     1     -25.003   8.804 -50.558  1.00  0.00     0.001 A 
ATOM     18  C   UNL     1     -24.940   2.606 -54.327  1.00  0.00     0.001 A 
ATOM     19  H   UNL     1     -29.352   6.123 -55.590  1.00  0.00     0.161 HD
ATOM     20  H   UNL     1     -27.904   5.204 -55.605  1.00  0.00     0.161 HD
ENDROOT
TORSDOF 0
ENDMDL
