MODEL 1
REMARK VINA RESULT:      -8.7      0.000      0.000
REMARK SMILES NC(=O)N1c2ccccc2C=Cc2ccccc21
REMARK SMILES IDX 3 1 4 2 1 3 5 4 18 5 10 6 13 7 11 8 12 9 6 10 17 11 9 12
REMARK SMILES IDX 14 13 2 14 7 15 16 16 8 17 15 18
REMARK H PARENT 1 19 1 20
ROOT
ATOM      1  O   UNL     1      21.099   1.672  15.344  1.00  0.00    -0.248 OA
ATOM      2  N   UNL     1      19.019   0.817  14.648  1.00  0.00    -0.262 N 
ATOM      3  N   UNL     1      20.043   0.187  16.688  1.00  0.00    -0.351 N 
ATOM      4  C   UNL     1      19.002   1.537  13.402  1.00  0.00     0.058 A 
ATOM      5  C   UNL     1      18.001  -0.187  14.785  1.00  0.00     0.058 A 
ATOM      6  C   UNL     1      17.871   2.247  12.954  1.00  0.00    -0.001 A 
ATOM      7  C   UNL     1      16.628   0.098  14.675  1.00  0.00    -0.001 A 
ATOM      8  C   UNL     1      16.645   2.402  13.744  1.00  0.00     0.011 C 
ATOM      9  C   UNL     1      16.096   1.452  14.506  1.00  0.00     0.011 C 
ATOM     10  C   UNL     1      20.160   1.538  12.599  1.00  0.00     0.027 A 
ATOM     11  C   UNL     1      18.398  -1.521  15.012  1.00  0.00     0.027 A 
ATOM     12  C   UNL     1      17.933   2.948  11.735  1.00  0.00     0.010 A 
ATOM     13  C   UNL     1      15.692  -0.941  14.831  1.00  0.00     0.010 A 
ATOM     14  C   UNL     1      20.134   0.922  15.518  1.00  0.00     0.323 C 
ATOM     15  C   UNL     1      20.200   2.225  11.385  1.00  0.00     0.002 A 
ATOM     16  C   UNL     1      17.459  -2.543  15.148  1.00  0.00     0.002 A 
ATOM     17  C   UNL     1      19.086   2.932  10.954  1.00  0.00     0.001 A 
ATOM     18  C   UNL     1      16.105  -2.252  15.060  1.00  0.00     0.001 A 
ATOM     19  H   UNL     1      20.798   0.215  17.366  1.00  0.00     0.161 HD
ATOM     20  H   UNL     1      19.203  -0.292  16.991  1.00  0.00     0.161 HD
ENDROOT
TORSDOF 0
ENDMDL
MODEL 2
REMARK VINA RESULT:      -8.3      1.607      4.693
REMARK SMILES NC(=O)N1c2ccccc2C=Cc2ccccc21
REMARK SMILES IDX 3 1 4 2 1 3 5 4 18 5 10 6 13 7 11 8 12 9 6 10 17 11 9 12
REMARK SMILES IDX 14 13 2 14 7 15 16 16 8 17 15 18
REMARK H PARENT 1 19 1 20
ROOT
ATOM      1  O   UNL     1      20.728   1.732  16.451  1.00  0.00    -0.248 OA
ATOM      2  N   UNL     1      19.775   1.036  14.414  1.00  0.00    -0.262 N 
ATOM      3  N   UNL     1      21.805   2.251  14.527  1.00  0.00    -0.351 N 
ATOM      4  C   UNL     1      18.623   0.425  15.021  1.00  0.00     0.058 A 
ATOM      5  C   UNL     1      19.715   1.164  12.984  1.00  0.00     0.058 A 
ATOM      6  C   UNL     1      18.170  -0.860  14.662  1.00  0.00    -0.001 A 
ATOM      7  C   UNL     1      19.529   0.064  12.126  1.00  0.00    -0.001 A 
ATOM      8  C   UNL     1      18.871  -1.731  13.714  1.00  0.00     0.011 C 
ATOM      9  C   UNL     1      19.474  -1.323  12.593  1.00  0.00     0.011 C 
ATOM     10  C   UNL     1      17.920   1.133  16.016  1.00  0.00     0.027 A 
ATOM     11  C   UNL     1      19.818   2.452  12.419  1.00  0.00     0.027 A 
ATOM     12  C   UNL     1      17.048  -1.405  15.314  1.00  0.00     0.010 A 
ATOM     13  C   UNL     1      19.489   0.272  10.736  1.00  0.00     0.010 A 
ATOM     14  C   UNL     1      20.738   1.699  15.217  1.00  0.00     0.323 C 
ATOM     15  C   UNL     1      16.799   0.584  16.643  1.00  0.00     0.002 A 
ATOM     16  C   UNL     1      19.760   2.643  11.039  1.00  0.00     0.002 A 
ATOM     17  C   UNL     1      16.365  -0.686  16.291  1.00  0.00     0.001 A 
ATOM     18  C   UNL     1      19.599   1.552  10.196  1.00  0.00     0.001 A 
ATOM     19  H   UNL     1      22.540   2.736  15.032  1.00  0.00     0.161 HD
ATOM     20  H   UNL     1      21.983   2.094  13.542  1.00  0.00     0.161 HD
ENDROOT
TORSDOF 0
ENDMDL
MODEL 3
REMARK VINA RESULT:      -7.6      2.360      3.724
REMARK SMILES NC(=O)N1c2ccccc2C=Cc2ccccc21
REMARK SMILES IDX 3 1 4 2 1 3 5 4 18 5 10 6 13 7 11 8 12 9 6 10 17 11 9 12
REMARK SMILES IDX 14 13 2 14 7 15 16 16 8 17 15 18
REMARK H PARENT 1 19 1 20
ROOT
ATOM      1  O   UNL     1      16.248   2.467  13.006  1.00  0.00    -0.248 OA
ATOM      2  N   UNL     1      18.219   1.356  13.655  1.00  0.00    -0.262 N 
ATOM      3  N   UNL     1      16.535   1.979  15.199  1.00  0.00    -0.351 N 
ATOM      4  C   UNL     1      18.777   1.312  12.330  1.00  0.00     0.058 A 
ATOM      5  C   UNL     1      19.121   0.979  14.708  1.00  0.00     0.058 A 
ATOM      6  C   UNL     1      19.341   0.142  11.785  1.00  0.00    -0.001 A 
ATOM      7  C   UNL     1      19.770  -0.270  14.747  1.00  0.00    -0.001 A 
ATOM      8  C   UNL     1      19.333  -1.156  12.466  1.00  0.00     0.011 C 
ATOM      9  C   UNL     1      19.521  -1.339  13.776  1.00  0.00     0.011 C 
ATOM     10  C   UNL     1      18.756   2.481  11.542  1.00  0.00     0.027 A 
ATOM     11  C   UNL     1      19.388   1.910  15.732  1.00  0.00     0.027 A 
ATOM     12  C   UNL     1      19.848   0.166  10.472  1.00  0.00     0.010 A 
ATOM     13  C   UNL     1      20.632  -0.567  15.817  1.00  0.00     0.010 A 
ATOM     14  C   UNL     1      16.975   1.996  13.886  1.00  0.00     0.323 C 
ATOM     15  C   UNL     1      19.277   2.491  10.247  1.00  0.00     0.002 A 
ATOM     16  C   UNL     1      20.259   1.607  16.778  1.00  0.00     0.002 A 
ATOM     17  C   UNL     1      19.822   1.332   9.712  1.00  0.00     0.001 A 
ATOM     18  C   UNL     1      20.879   0.366  16.823  1.00  0.00     0.001 A 
ATOM     19  H   UNL     1      15.649   2.411  15.443  1.00  0.00     0.161 HD
ATOM     20  H   UNL     1      16.977   1.443  15.936  1.00  0.00     0.161 HD
ENDROOT
TORSDOF 0
ENDMDL
