REMARK SMILES Cc1ccc(-c2cc(C(F)(F)F)nn2-c2ccc(S(N)(=O)=O)cc2)cc1
REMARK SMILES IDX 15 1 16 2 24 3 18 4 17 5 23 6 19 7 21 8 22 9 20 10 14 13
REMARK SMILES IDX 13 14 6 15 8 16 7 17 5 18 4 19 25 20 3 21 26 22 2 23 1 24
REMARK SMILES IDX 9 25 10 26 11 27 12 28
REMARK H PARENT 20 11 20 12
ROOT
ATOM      1  C   UNL     1       0.312  -0.848  -0.012  1.00  0.00     0.065 A 
ATOM      2  C   UNL     1       1.171   0.074   0.571  1.00  0.00     0.030 A 
ATOM      3  C   UNL     1       0.800  -2.002  -0.608  1.00  0.00     0.030 A 
ATOM      4  C   UNL     1       3.047  -1.321  -0.038  1.00  0.00     0.082 A 
ATOM      5  C   UNL     1       2.546  -0.164   0.558  1.00  0.00     0.024 A 
ATOM      6  C   UNL     1       2.175  -2.240  -0.621  1.00  0.00     0.024 A 
ENDROOT
BRANCH   4   7
ATOM      7  S   UNL     1       4.768  -1.619  -0.054  1.00  0.00     0.238 S 
ATOM      8  O   UNL     1       5.070  -2.506  -1.169  1.00  0.00    -0.207 OA
ATOM      9  O   UNL     1       5.459  -0.343   0.064  1.00  0.00    -0.207 OA
BRANCH   7  10
ATOM     10  N   UNL     1       4.961  -2.485   1.407  1.00  0.00    -0.225 NA
ATOM     11  H   UNL     1       5.172  -3.488   1.342  1.00  0.00     0.137 HD
ATOM     12  H   UNL     1       5.436  -2.009   2.183  1.00  0.00     0.137 HD
ENDBRANCH   7  10
ENDBRANCH   4   7
BRANCH   1  13
ATOM     13  N   UNL     1      -1.064  -0.609   0.001  1.00  0.00    -0.233 N 
ATOM     14  N   UNL     1      -1.915  -1.649   0.023  1.00  0.00    -0.163 NA
ATOM     15  C   UNL     1      -1.679   0.610  -0.007  1.00  0.00     0.075 A 
ATOM     16  C   UNL     1      -3.113  -1.060   0.029  1.00  0.00     0.167 A 
ATOM     17  C   UNL     1      -3.028   0.345   0.011  1.00  0.00     0.064 A 
BRANCH  15  18
ATOM     18  C   UNL     1      -0.989   1.876  -0.030  1.00  0.00     0.000 A 
ATOM     19  C   UNL     1      -0.642   2.503   1.167  1.00  0.00     0.010 A 
ATOM     20  C   UNL     1      -0.668   2.474  -1.249  1.00  0.00     0.010 A 
ATOM     21  C   UNL     1       0.026   3.728   1.145  1.00  0.00     0.004 A 
ATOM     22  C   UNL     1      -0.001   3.699  -1.271  1.00  0.00     0.004 A 
ATOM     23  C   UNL     1       0.346   4.325  -0.074  1.00  0.00    -0.051 A 
ATOM     24  C   UNL     1       1.059   5.635  -0.099  1.00  0.00     0.044 C 
ENDBRANCH  15  18
BRANCH  16  25
ATOM     25  C   UNL     1      -4.333  -1.884   0.054  1.00  0.00     0.435 C 
ATOM     26  F   UNL     1      -5.477  -1.141   0.059  1.00  0.00    -0.164 F 
ATOM     27  F   UNL     1      -4.440  -2.720  -1.018  1.00  0.00    -0.164 F 
ATOM     28  F   UNL     1      -4.391  -2.677   1.161  1.00  0.00    -0.164 F 
ENDBRANCH  16  25
ENDBRANCH   1  13
TORSDOF 5
