MODEL 1
REMARK VINA RESULT:      -4.8      0.000      0.000
REMARK SMILES Cc1ccc(-c2cc(C(F)(F)F)nn2-c2ccc(S(N)(=O)=O)cc2)cc1
REMARK SMILES IDX 15 1 16 2 24 3 18 4 17 5 23 6 19 7 21 8 22 9 20 10 14 13
REMARK SMILES IDX 13 14 6 15 8 16 7 17 5 18 4 19 25 20 3 21 26 22 2 23 1 24
REMARK SMILES IDX 9 25 10 26 11 27 12 28
REMARK H PARENT 20 11 20 12
ROOT
ATOM      1  C   UNL     1     -26.878   4.385 -54.981  1.00  0.00     0.065 A 
ATOM      2  C   UNL     1     -26.359   3.314 -54.266  1.00  0.00     0.030 A 
ATOM      3  C   UNL     1     -27.094   4.294 -56.348  1.00  0.00     0.030 A 
ATOM      4  C   UNL     1     -26.265   2.025 -56.307  1.00  0.00     0.082 A 
ATOM      5  C   UNL     1     -26.051   2.127 -54.933  1.00  0.00     0.024 A 
ATOM      6  C   UNL     1     -26.786   3.107 -57.015  1.00  0.00     0.024 A 
ENDROOT
BRANCH   4   7
ATOM      7  S   UNL     1     -25.879   0.539 -57.141  1.00  0.00     0.238 S 
ATOM      8  O   UNL     1     -26.731  -0.518 -56.614  1.00  0.00    -0.207 OA
ATOM      9  O   UNL     1     -25.857   0.806 -58.573  1.00  0.00    -0.207 OA
BRANCH   7  10
ATOM     10  N   UNL     1     -24.277   0.274 -56.608  1.00  0.00    -0.225 NA
ATOM     11  H   UNL     1     -24.136   0.058 -55.614  1.00  0.00     0.137 HD
ATOM     12  H   UNL     1     -23.644  -0.232 -57.238  1.00  0.00     0.137 HD
ENDBRANCH   7  10
ENDBRANCH   4   7
BRANCH   1  13
ATOM     13  N   UNL     1     -27.185   5.572 -54.313  1.00  0.00    -0.233 N 
ATOM     14  N   UNL     1     -28.326   5.657 -53.607  1.00  0.00    -0.163 NA
ATOM     15  C   UNL     1     -26.433   6.712 -54.289  1.00  0.00     0.075 A 
ATOM     16  C   UNL     1     -28.290   6.899 -53.120  1.00  0.00     0.167 A 
ATOM     17  C   UNL     1     -27.135   7.603 -53.512  1.00  0.00     0.064 A 
BRANCH  15  18
ATOM     18  C   UNL     1     -25.170   6.874 -54.966  1.00  0.00     0.000 A 
ATOM     19  C   UNL     1     -25.124   7.489 -56.217  1.00  0.00     0.010 A 
ATOM     20  C   UNL     1     -23.995   6.417 -54.369  1.00  0.00     0.010 A 
ATOM     21  C   UNL     1     -23.902   7.647 -56.872  1.00  0.00     0.004 A 
ATOM     22  C   UNL     1     -22.773   6.574 -55.024  1.00  0.00     0.004 A 
ATOM     23  C   UNL     1     -22.727   7.190 -56.275  1.00  0.00    -0.051 A 
ATOM     24  C   UNL     1     -21.420   7.357 -56.974  1.00  0.00     0.044 C 
ENDBRANCH  15  18
BRANCH  16  25
ATOM     25  C   UNL     1     -29.391   7.385 -52.272  1.00  0.00     0.435 C 
ATOM     26  F   UNL     1     -28.955   8.070 -51.175  1.00  0.00    -0.164 F 
ATOM     27  F   UNL     1     -30.239   8.231 -52.923  1.00  0.00    -0.164 F 
ATOM     28  F   UNL     1     -30.161   6.364 -51.800  1.00  0.00    -0.164 F 
ENDBRANCH  16  25
ENDBRANCH   1  13
TORSDOF 5
ENDMDL
MODEL 2
REMARK VINA RESULT:      -4.8      5.594      7.541
REMARK SMILES Cc1ccc(-c2cc(C(F)(F)F)nn2-c2ccc(S(N)(=O)=O)cc2)cc1
REMARK SMILES IDX 15 1 16 2 24 3 18 4 17 5 23 6 19 7 21 8 22 9 20 10 14 13
REMARK SMILES IDX 13 14 6 15 8 16 7 17 5 18 4 19 25 20 3 21 26 22 2 23 1 24
REMARK SMILES IDX 9 25 10 26 11 27 12 28
REMARK H PARENT 20 11 20 12
ROOT
ATOM      1  C   UNL     1     -26.013   7.307 -52.326  1.00  0.00     0.065 A 
ATOM      2  C   UNL     1     -24.888   7.967 -52.800  1.00  0.00     0.030 A 
ATOM      3  C   UNL     1     -26.522   7.578 -51.064  1.00  0.00     0.030 A 
ATOM      4  C   UNL     1     -24.763   9.199 -50.726  1.00  0.00     0.082 A 
ATOM      5  C   UNL     1     -24.260   8.919 -51.996  1.00  0.00     0.024 A 
ATOM      6  C   UNL     1     -25.894   8.530 -50.259  1.00  0.00     0.024 A 
ENDROOT
BRANCH   4   7
ATOM      7  S   UNL     1     -23.977  10.391 -49.719  1.00  0.00     0.238 S 
ATOM      8  O   UNL     1     -22.813   9.772 -49.100  1.00  0.00    -0.207 OA
ATOM      9  O   UNL     1     -23.822  11.617 -50.489  1.00  0.00    -0.207 OA
BRANCH   7  10
ATOM     10  N   UNL     1     -25.170  10.641 -48.521  1.00  0.00    -0.225 NA
ATOM     11  H   UNL     1     -25.768   9.845 -48.270  1.00  0.00     0.137 HD
ATOM     12  H   UNL     1     -24.928  11.247 -47.728  1.00  0.00     0.137 HD
ENDBRANCH   7  10
ENDBRANCH   4   7
BRANCH   1  13
ATOM     13  N   UNL     1     -26.642   6.354 -53.131  1.00  0.00    -0.233 N 
ATOM     14  N   UNL     1     -26.226   5.077 -53.090  1.00  0.00    -0.163 NA
ATOM     15  C   UNL     1     -27.674   6.573 -53.997  1.00  0.00     0.075 A 
ATOM     16  C   UNL     1     -27.030   4.469 -53.965  1.00  0.00     0.167 A 
ATOM     17  C   UNL     1     -27.952   5.350 -54.561  1.00  0.00     0.064 A 
BRANCH  15  18
ATOM     18  C   UNL     1     -28.297   7.854 -54.223  1.00  0.00     0.000 A 
ATOM     19  C   UNL     1     -27.844   8.678 -55.255  1.00  0.00     0.010 A 
ATOM     20  C   UNL     1     -29.352   8.271 -53.411  1.00  0.00     0.010 A 
ATOM     21  C   UNL     1     -28.447   9.917 -55.474  1.00  0.00     0.004 A 
ATOM     22  C   UNL     1     -29.954   9.510 -53.629  1.00  0.00     0.004 A 
ATOM     23  C   UNL     1     -29.501  10.332 -54.661  1.00  0.00    -0.051 A 
ATOM     24  C   UNL     1     -30.145  11.658 -54.893  1.00  0.00     0.044 C 
ENDBRANCH  15  18
BRANCH  16  25
ATOM     25  C   UNL     1     -26.887   3.023 -54.208  1.00  0.00     0.435 C 
ATOM     26  F   UNL     1     -27.329   2.645 -55.442  1.00  0.00    -0.164 F 
ATOM     27  F   UNL     1     -25.597   2.589 -54.127  1.00  0.00    -0.164 F 
ATOM     28  F   UNL     1     -27.594   2.282 -53.308  1.00  0.00    -0.164 F 
ENDBRANCH  16  25
ENDBRANCH   1  13
TORSDOF 5
ENDMDL
MODEL 3
REMARK VINA RESULT:      -4.7      3.440      5.297
REMARK SMILES Cc1ccc(-c2cc(C(F)(F)F)nn2-c2ccc(S(N)(=O)=O)cc2)cc1
REMARK SMILES IDX 15 1 16 2 24 3 18 4 17 5 23 6 19 7 21 8 22 9 20 10 14 13
REMARK SMILES IDX 13 14 6 15 8 16 7 17 5 18 4 19 25 20 3 21 26 22 2 23 1 24
REMARK SMILES IDX 9 25 10 26 11 27 12 28
REMARK H PARENT 20 11 20 12
ROOT
ATOM      1  C   UNL     1     -24.007   4.513 -54.840  1.00  0.00     0.065 A 
ATOM      2  C   UNL     1     -23.218   3.597 -54.157  1.00  0.00     0.030 A 
ATOM      3  C   UNL     1     -23.481   5.283 -55.868  1.00  0.00     0.030 A 
ATOM      4  C   UNL     1     -21.337   4.218 -55.541  1.00  0.00     0.082 A 
ATOM      5  C   UNL     1     -21.875   3.449 -54.510  1.00  0.00     0.024 A 
ATOM      6  C   UNL     1     -22.139   5.135 -56.220  1.00  0.00     0.024 A 
ENDROOT
BRANCH   4   7
ATOM      7  S   UNL     1     -19.657   4.032 -55.982  1.00  0.00     0.238 S 
ATOM      8  O   UNL     1     -18.857   4.876 -55.107  1.00  0.00    -0.207 OA
ATOM      9  O   UNL     1     -19.362   2.610 -56.087  1.00  0.00    -0.207 OA
BRANCH   7  10
ATOM     10  N   UNL     1     -19.657   4.709 -57.552  1.00  0.00    -0.225 NA
ATOM     11  H   UNL     1     -19.250   4.151 -58.312  1.00  0.00     0.137 HD
ATOM     12  H   UNL     1     -20.478   5.259 -57.833  1.00  0.00     0.137 HD
ENDBRANCH   7  10
ENDBRANCH   4   7
BRANCH   1  13
ATOM     13  N   UNL     1     -25.350   4.661 -54.487  1.00  0.00    -0.233 N 
ATOM     14  N   UNL     1     -25.698   5.603 -53.594  1.00  0.00    -0.163 NA
ATOM     15  C   UNL     1     -26.402   3.930 -54.959  1.00  0.00     0.075 A 
ATOM     16  C   UNL     1     -27.022   5.459 -53.502  1.00  0.00     0.167 A 
ATOM     17  C   UNL     1     -27.516   4.432 -54.329  1.00  0.00     0.064 A 
BRANCH  15  18
ATOM     18  C   UNL     1     -26.291   2.863 -55.923  1.00  0.00     0.000 A 
ATOM     19  C   UNL     1     -26.082   1.552 -55.491  1.00  0.00     0.010 A 
ATOM     20  C   UNL     1     -26.394   3.140 -57.286  1.00  0.00     0.010 A 
ATOM     21  C   UNL     1     -25.976   0.519 -56.423  1.00  0.00     0.004 A 
ATOM     22  C   UNL     1     -26.286   2.107 -58.218  1.00  0.00     0.004 A 
ATOM     23  C   UNL     1     -26.078   0.798 -57.786  1.00  0.00    -0.051 A 
ATOM     24  C   UNL     1     -25.963  -0.305 -58.784  1.00  0.00     0.044 C 
ENDBRANCH  15  18
BRANCH  16  25
ATOM     25  C   UNL     1     -27.792   6.333 -52.602  1.00  0.00     0.435 C 
ATOM     26  F   UNL     1     -29.135   6.104 -52.658  1.00  0.00    -0.164 F 
ATOM     27  F   UNL     1     -27.448   6.192 -51.290  1.00  0.00    -0.164 F 
ATOM     28  F   UNL     1     -27.619   7.652 -52.899  1.00  0.00    -0.164 F 
ENDBRANCH  16  25
ENDBRANCH   1  13
TORSDOF 5
ENDMDL
