REMARK SMILES NC(N)=Nc1nc(CSCC/C(N)=N/S(N)(=O)=O)cs1
REMARK SMILES IDX 10 1 9 2 8 3 7 4 6 5 19 6 5 7 20 8 4 9 2 10 1 11 3 12 11 17
REMARK SMILES IDX 12 18 14 19 13 20 15 23 17 24 18 25 16 26
REMARK H PARENT 1 13 1 14 3 15 3 16 13 21 13 22 16 27 16 28
ROOT
ATOM      1  C   UNL     1       2.617  -2.649   0.634  1.00  0.00     0.078 C 
ENDROOT
BRANCH   1   2
ATOM      2  S   UNL     1       0.974  -2.046   1.129  1.00  0.00    -0.155 SA
BRANCH   2   3
ATOM      3  C   UNL     1       0.125  -2.282  -0.448  1.00  0.00     0.126 C 
BRANCH   3   4
ATOM      4  C   UNL     1      -1.306  -1.861  -0.368  1.00  0.00     0.064 A 
ATOM      5  N   UNL     1      -1.606  -0.556  -0.670  1.00  0.00    -0.222 NA
ATOM      6  C   UNL     1      -2.349  -2.676  -0.016  1.00  0.00     0.093 A 
ATOM      7  C   UNL     1      -2.904  -0.392  -0.540  1.00  0.00     0.212 A 
ATOM      8  S   UNL     1      -3.805  -1.771  -0.059  1.00  0.00    -0.103 S 
BRANCH   7   9
ATOM      9  N   UNL     1      -3.583   0.764  -0.752  1.00  0.00    -0.186 NA
ATOM     10  C   UNL     1      -3.740   1.575   0.268  1.00  0.00     0.193 C 
ATOM     11  N   UNL     1      -4.388   2.792   0.289  1.00  0.00    -0.370 N 
ATOM     12  N   UNL     1      -3.227   1.249   1.502  1.00  0.00    -0.370 N 
ATOM     13  H   UNL     1      -4.820   3.170  -0.548  1.00  0.00     0.159 HD
ATOM     14  H   UNL     1      -4.452   3.344   1.137  1.00  0.00     0.159 HD
ATOM     15  H   UNL     1      -3.346   1.875   2.291  1.00  0.00     0.159 HD
ATOM     16  H   UNL     1      -2.716   0.394   1.687  1.00  0.00     0.159 HD
ENDBRANCH   7   9
ENDBRANCH   3   4
ENDBRANCH   2   3
ENDBRANCH   1   2
BRANCH   1  17
ATOM     17  C   UNL     1       3.219  -1.823  -0.498  1.00  0.00     0.086 C 
BRANCH  17  18
ATOM     18  C   UNL     1       3.398  -0.356  -0.117  1.00  0.00     0.115 C 
ATOM     19  N   UNL     1       2.433   0.444  -0.461  1.00  0.00    -0.137 NA
ATOM     20  N   UNL     1       4.565  -0.045   0.543  1.00  0.00    -0.386 N 
ATOM     21  H   UNL     1       5.255  -0.755   0.767  1.00  0.00     0.157 HD
ATOM     22  H   UNL     1       4.775   0.903   0.835  1.00  0.00     0.157 HD
BRANCH  19  23
ATOM     23  S   UNL     1       2.495   2.042  -0.127  1.00  0.00     0.318 S 
ATOM     24  O   UNL     1       3.584   2.636  -0.885  1.00  0.00    -0.187 OA
ATOM     25  O   UNL     1       2.455   2.220   1.316  1.00  0.00    -0.187 OA
BRANCH  23  26
ATOM     26  N   UNL     1       1.043   2.735  -0.741  1.00  0.00    -0.210 NA
ATOM     27  H   UNL     1       0.172   2.462  -0.268  1.00  0.00     0.139 HD
ATOM     28  H   UNL     1       0.943   2.753  -1.764  1.00  0.00     0.139 HD
ENDBRANCH  23  26
ENDBRANCH  19  23
ENDBRANCH  17  18
ENDBRANCH   1  17
TORSDOF 8
