MODEL 1
REMARK VINA RESULT:      -4.5      0.000      0.000
REMARK SMILES NC(N)=Nc1nc(CSCC/C(N)=N/S(N)(=O)=O)cs1
REMARK SMILES IDX 10 1 9 2 8 3 7 4 6 5 19 6 5 7 20 8 4 9 2 10 1 11 3 12 11 17
REMARK SMILES IDX 12 18 14 19 13 20 15 23 17 24 18 25 16 26
REMARK H PARENT 1 13 1 14 3 15 3 16 13 21 13 22 16 27 16 28
ROOT
ATOM      1  C   UNL     1     -31.672   8.810 -46.265  1.00  0.00     0.078 C 
ENDROOT
BRANCH   1   2
ATOM      2  S   UNL     1     -30.798  10.291 -46.856  1.00  0.00    -0.155 SA
BRANCH   2   3
ATOM      3  C   UNL     1     -31.504  11.487 -45.700  1.00  0.00     0.126 C 
BRANCH   3   4
ATOM      4  C   UNL     1     -30.441  12.303 -45.040  1.00  0.00     0.064 A 
ATOM      5  N   UNL     1     -29.563  11.656 -44.207  1.00  0.00    -0.222 NA
ATOM      6  C   UNL     1     -30.270  13.653 -45.201  1.00  0.00     0.093 A 
ATOM      7  C   UNL     1     -28.716  12.544 -43.733  1.00  0.00     0.212 A 
ATOM      8  S   UNL     1     -28.932  14.163 -44.257  1.00  0.00    -0.103 S 
BRANCH   7   9
ATOM      9  N   UNL     1     -27.698  12.288 -42.873  1.00  0.00    -0.186 NA
ATOM     10  C   UNL     1     -26.721  11.520 -43.295  1.00  0.00     0.193 C 
ATOM     11  N   UNL     1     -25.594  11.128 -42.605  1.00  0.00    -0.370 N 
ATOM     12  N   UNL     1     -26.745  11.001 -44.569  1.00  0.00    -0.370 N 
ATOM     13  H   UNL     1     -25.433  11.432 -41.649  1.00  0.00     0.159 HD
ATOM     14  H   UNL     1     -24.894  10.529 -43.028  1.00  0.00     0.159 HD
ATOM     15  H   UNL     1     -25.990  10.408 -44.898  1.00  0.00     0.159 HD
ATOM     16  H   UNL     1     -27.492  11.176 -45.230  1.00  0.00     0.159 HD
ENDBRANCH   7   9
ENDBRANCH   3   4
ENDBRANCH   2   3
ENDBRANCH   1   2
BRANCH   1  17
ATOM     17  C   UNL     1     -31.660   8.700 -44.744  1.00  0.00     0.086 C 
BRANCH  17  18
ATOM     18  C   UNL     1     -32.043   7.305 -44.257  1.00  0.00     0.115 C 
ATOM     19  N   UNL     1     -31.257   6.338 -44.625  1.00  0.00    -0.137 NA
ATOM     20  N   UNL     1     -33.181   7.229 -43.488  1.00  0.00    -0.386 N 
ATOM     21  H   UNL     1     -33.722   8.056 -43.255  1.00  0.00     0.157 HD
ATOM     22  H   UNL     1     -33.517   6.346 -43.120  1.00  0.00     0.157 HD
BRANCH  19  23
ATOM     23  S   UNL     1     -31.550   4.792 -44.186  1.00  0.00     0.318 S 
ATOM     24  O   UNL     1     -32.573   4.243 -45.062  1.00  0.00    -0.187 OA
ATOM     25  O   UNL     1     -31.749   4.744 -42.746  1.00  0.00    -0.187 OA
BRANCH  23  26
ATOM     26  N   UNL     1     -30.111   3.902 -44.506  1.00  0.00    -0.210 NA
ATOM     27  H   UNL     1     -29.789   3.891 -45.483  1.00  0.00     0.139 HD
ATOM     28  H   UNL     1     -30.036   2.979 -44.060  1.00  0.00     0.139 HD
ENDBRANCH  23  26
ENDBRANCH  19  23
ENDBRANCH  17  18
ENDBRANCH   1  17
TORSDOF 8
ENDMDL
MODEL 2
REMARK VINA RESULT:      -4.4      2.623      3.210
REMARK SMILES NC(N)=Nc1nc(CSCC/C(N)=N/S(N)(=O)=O)cs1
REMARK SMILES IDX 10 1 9 2 8 3 7 4 6 5 19 6 5 7 20 8 4 9 2 10 1 11 3 12 11 17
REMARK SMILES IDX 12 18 14 19 13 20 15 23 17 24 18 25 16 26
REMARK H PARENT 1 13 1 14 3 15 3 16 13 21 13 22 16 27 16 28
ROOT
ATOM      1  C   UNL     1     -31.190   9.610 -42.906  1.00  0.00     0.078 C 
ENDROOT
BRANCH   1   2
ATOM      2  S   UNL     1     -30.585  11.283 -43.287  1.00  0.00    -0.155 SA
BRANCH   2   3
ATOM      3  C   UNL     1     -28.873  10.858 -43.673  1.00  0.00     0.126 C 
BRANCH   3   4
ATOM      4  C   UNL     1     -28.404  11.545 -44.914  1.00  0.00     0.064 A 
ATOM      5  N   UNL     1     -27.363  10.976 -45.606  1.00  0.00    -0.222 NA
ATOM      6  C   UNL     1     -28.932  12.703 -45.422  1.00  0.00     0.093 A 
ATOM      7  C   UNL     1     -27.107  11.727 -46.654  1.00  0.00     0.212 A 
ATOM      8  S   UNL     1     -28.086  13.123 -46.853  1.00  0.00    -0.103 S 
BRANCH   7   9
ATOM      9  N   UNL     1     -26.144  11.494 -47.581  1.00  0.00    -0.186 NA
ATOM     10  C   UNL     1     -26.338  10.510 -48.427  1.00  0.00     0.193 C 
ATOM     11  N   UNL     1     -25.505  10.092 -49.444  1.00  0.00    -0.370 N 
ATOM     12  N   UNL     1     -27.484   9.752 -48.363  1.00  0.00    -0.370 N 
ATOM     13  H   UNL     1     -24.619  10.555 -49.619  1.00  0.00     0.159 HD
ATOM     14  H   UNL     1     -25.753   9.315 -50.047  1.00  0.00     0.159 HD
ATOM     15  H   UNL     1     -27.636   8.992 -49.017  1.00  0.00     0.159 HD
ATOM     16  H   UNL     1     -28.218   9.905 -47.682  1.00  0.00     0.159 HD
ENDBRANCH   7   9
ENDBRANCH   3   4
ENDBRANCH   2   3
ENDBRANCH   1   2
BRANCH   1  17
ATOM     17  C   UNL     1     -31.561   8.830 -44.163  1.00  0.00     0.086 C 
BRANCH  17  18
ATOM     18  C   UNL     1     -31.997   7.400 -43.853  1.00  0.00     0.115 C 
ATOM     19  N   UNL     1     -31.337   6.459 -44.459  1.00  0.00    -0.137 NA
ATOM     20  N   UNL     1     -33.046   7.271 -42.971  1.00  0.00    -0.386 N 
ATOM     21  H   UNL     1     -33.491   8.080 -42.550  1.00  0.00     0.157 HD
ATOM     22  H   UNL     1     -33.408   6.362 -42.705  1.00  0.00     0.157 HD
BRANCH  19  23
ATOM     23  S   UNL     1     -31.702   4.883 -44.229  1.00  0.00     0.318 S 
ATOM     24  O   UNL     1     -30.657   4.069 -44.827  1.00  0.00    -0.187 OA
ATOM     25  O   UNL     1     -33.085   4.662 -44.621  1.00  0.00    -0.187 OA
BRANCH  23  26
ATOM     26  N   UNL     1     -31.628   4.597 -42.533  1.00  0.00    -0.210 NA
ATOM     27  H   UNL     1     -32.046   3.719 -42.200  1.00  0.00     0.139 HD
ATOM     28  H   UNL     1     -31.857   5.394 -41.925  1.00  0.00     0.139 HD
ENDBRANCH  23  26
ENDBRANCH  19  23
ENDBRANCH  17  18
ENDBRANCH   1  17
TORSDOF 8
ENDMDL
MODEL 3
REMARK VINA RESULT:      -4.3      4.110      4.964
REMARK SMILES NC(N)=Nc1nc(CSCC/C(N)=N/S(N)(=O)=O)cs1
REMARK SMILES IDX 10 1 9 2 8 3 7 4 6 5 19 6 5 7 20 8 4 9 2 10 1 11 3 12 11 17
REMARK SMILES IDX 12 18 14 19 13 20 15 23 17 24 18 25 16 26
REMARK H PARENT 1 13 1 14 3 15 3 16 13 21 13 22 16 27 16 28
ROOT
ATOM      1  C   UNL     1     -31.148   8.931 -46.164  1.00  0.00     0.078 C 
ENDROOT
BRANCH   1   2
ATOM      2  S   UNL     1     -30.353  10.516 -45.757  1.00  0.00    -0.155 SA
BRANCH   2   3
ATOM      3  C   UNL     1     -30.262  11.197 -47.428  1.00  0.00     0.126 C 
BRANCH   3   4
ATOM      4  C   UNL     1     -29.015  10.767 -48.128  1.00  0.00     0.064 A 
ATOM      5  N   UNL     1     -29.071  10.599 -49.489  1.00  0.00    -0.222 NA
ATOM      6  C   UNL     1     -27.812  10.526 -47.518  1.00  0.00     0.093 A 
ATOM      7  C   UNL     1     -27.883  10.222 -49.906  1.00  0.00     0.212 A 
ATOM      8  S   UNL     1     -26.667  10.057 -48.706  1.00  0.00    -0.103 S 
BRANCH   7   9
ATOM      9  N   UNL     1     -27.541   9.956 -51.192  1.00  0.00    -0.186 NA
ATOM     10  C   UNL     1     -28.037   8.874 -51.744  1.00  0.00     0.193 C 
ATOM     11  N   UNL     1     -27.831   8.406 -53.025  1.00  0.00    -0.370 N 
ATOM     12  N   UNL     1     -28.874   8.049 -51.029  1.00  0.00    -0.370 N 
ATOM     13  H   UNL     1     -27.236   8.908 -53.676  1.00  0.00     0.159 HD
ATOM     14  H   UNL     1     -28.267   7.552 -53.354  1.00  0.00     0.159 HD
ATOM     15  H   UNL     1     -29.260   7.213 -51.454  1.00  0.00     0.159 HD
ATOM     16  H   UNL     1     -29.146   8.224 -50.069  1.00  0.00     0.159 HD
ENDBRANCH   7   9
ENDBRANCH   3   4
ENDBRANCH   2   3
ENDBRANCH   1   2
BRANCH   1  17
ATOM     17  C   UNL     1     -32.512   8.782 -45.498  1.00  0.00     0.086 C 
BRANCH  17  18
ATOM     18  C   UNL     1     -32.576   7.577 -44.564  1.00  0.00     0.115 C 
ATOM     19  N   UNL     1     -31.703   6.639 -44.784  1.00  0.00    -0.137 NA
ATOM     20  N   UNL     1     -33.554   7.617 -43.597  1.00  0.00    -0.386 N 
ATOM     21  H   UNL     1     -34.185   8.408 -43.511  1.00  0.00     0.157 HD
ATOM     22  H   UNL     1     -33.676   6.863 -42.931  1.00  0.00     0.157 HD
BRANCH  19  23
ATOM     23  S   UNL     1     -31.662   5.286 -43.868  1.00  0.00     0.318 S 
ATOM     24  O   UNL     1     -32.919   4.574 -44.028  1.00  0.00    -0.187 OA
ATOM     25  O   UNL     1     -31.212   5.641 -42.531  1.00  0.00    -0.187 OA
BRANCH  23  26
ATOM     26  N   UNL     1     -30.442   4.271 -44.536  1.00  0.00    -0.210 NA
ATOM     27  H   UNL     1     -29.947   3.657 -43.876  1.00  0.00     0.139 HD
ATOM     28  H   UNL     1     -29.805   4.708 -45.215  1.00  0.00     0.139 HD
ENDBRANCH  23  26
ENDBRANCH  19  23
ENDBRANCH  17  18
ENDBRANCH   1  17
TORSDOF 8
ENDMDL
