MODEL 1
REMARK VINA RESULT:      -6.6      0.000      0.000
REMARK SMILES NC(N)=Nc1nc(CSCC/C(N)=N/S(N)(=O)=O)cs1
REMARK SMILES IDX 10 1 9 2 8 3 7 4 6 5 19 6 5 7 20 8 4 9 2 10 1 11 3 12 11 17
REMARK SMILES IDX 12 18 14 19 13 20 15 23 17 24 18 25 16 26
REMARK H PARENT 1 13 1 14 3 15 3 16 13 21 13 22 16 27 16 28
ROOT
ATOM      1  C   UNL     1      20.031  -0.673  10.102  1.00  0.00     0.078 C 
ENDROOT
BRANCH   1   2
ATOM      2  S   UNL     1      19.541   0.593  11.313  1.00  0.00    -0.155 SA
BRANCH   2   3
ATOM      3  C   UNL     1      19.094  -0.509  12.673  1.00  0.00     0.126 C 
BRANCH   3   4
ATOM      4  C   UNL     1      18.334   0.215  13.736  1.00  0.00     0.064 A 
ATOM      5  N   UNL     1      17.683  -0.538  14.681  1.00  0.00    -0.222 NA
ATOM      6  C   UNL     1      18.234   1.577  13.846  1.00  0.00     0.093 A 
ATOM      7  C   UNL     1      17.081   0.280  15.516  1.00  0.00     0.212 A 
ATOM      8  S   UNL     1      17.268   1.958  15.210  1.00  0.00    -0.103 S 
BRANCH   7   9
ATOM      9  N   UNL     1      16.334  -0.088  16.587  1.00  0.00    -0.186 NA
ATOM     10  C   UNL     1      16.967  -0.504  17.659  1.00  0.00     0.193 C 
ATOM     11  N   UNL     1      16.421  -0.924  18.854  1.00  0.00    -0.370 N 
ATOM     12  N   UNL     1      18.341  -0.558  17.679  1.00  0.00    -0.370 N 
ATOM     13  H   UNL     1      15.416  -0.940  18.994  1.00  0.00     0.159 HD
ATOM     14  H   UNL     1      17.005  -1.227  19.626  1.00  0.00     0.159 HD
ATOM     15  H   UNL     1      18.832  -0.878  18.506  1.00  0.00     0.159 HD
ATOM     16  H   UNL     1      18.923  -0.289  16.894  1.00  0.00     0.159 HD
ENDBRANCH   7   9
ENDBRANCH   3   4
ENDBRANCH   2   3
ENDBRANCH   1   2
BRANCH   1  17
ATOM     17  C   UNL     1      20.027  -0.139   8.674  1.00  0.00     0.086 C 
BRANCH  17  18
ATOM     18  C   UNL     1      19.483  -1.155   7.673  1.00  0.00     0.115 C 
ATOM     19  N   UNL     1      18.729  -0.677   6.728  1.00  0.00    -0.137 NA
ATOM     20  N   UNL     1      19.847  -2.465   7.889  1.00  0.00    -0.386 N 
ATOM     21  H   UNL     1      20.449  -2.729   8.662  1.00  0.00     0.157 HD
ATOM     22  H   UNL     1      19.533  -3.212   7.279  1.00  0.00     0.157 HD
BRANCH  19  23
ATOM     23  S   UNL     1      18.069  -1.650   5.594  1.00  0.00     0.318 S 
ATOM     24  O   UNL     1      17.548  -0.826   4.517  1.00  0.00    -0.187 OA
ATOM     25  O   UNL     1      17.186  -2.601   6.251  1.00  0.00    -0.187 OA
BRANCH  23  26
ATOM     26  N   UNL     1      19.358  -2.572   4.920  1.00  0.00    -0.210 NA
ATOM     27  H   UNL     1      19.931  -2.101   4.208  1.00  0.00     0.139 HD
ATOM     28  H   UNL     1      19.139  -3.544   4.665  1.00  0.00     0.139 HD
ENDBRANCH  23  26
ENDBRANCH  19  23
ENDBRANCH  17  18
ENDBRANCH   1  17
TORSDOF 8
ENDMDL
MODEL 2
REMARK VINA RESULT:      -6.5     10.323     11.485
REMARK SMILES NC(N)=Nc1nc(CSCC/C(N)=N/S(N)(=O)=O)cs1
REMARK SMILES IDX 10 1 9 2 8 3 7 4 6 5 19 6 5 7 20 8 4 9 2 10 1 11 3 12 11 17
REMARK SMILES IDX 12 18 14 19 13 20 15 23 17 24 18 25 16 26
REMARK H PARENT 1 13 1 14 3 15 3 16 13 21 13 22 16 27 16 28
ROOT
ATOM      1  C   UNL     1      22.592 -11.585  14.675  1.00  0.00     0.078 C 
ENDROOT
BRANCH   1   2
ATOM      2  S   UNL     1      24.335 -11.984  15.007  1.00  0.00    -0.155 SA
BRANCH   2   3
ATOM      3  C   UNL     1      24.618 -10.811  16.352  1.00  0.00     0.126 C 
BRANCH   3   4
ATOM      4  C   UNL     1      24.045  -9.468  16.037  1.00  0.00     0.064 A 
ATOM      5  N   UNL     1      24.437  -8.865  14.868  1.00  0.00    -0.222 NA
ATOM      6  C   UNL     1      23.156  -8.786  16.824  1.00  0.00     0.093 A 
ATOM      7  C   UNL     1      23.826  -7.704  14.779  1.00  0.00     0.212 A 
ATOM      8  S   UNL     1      22.774  -7.293  16.071  1.00  0.00    -0.103 S 
BRANCH   7   9
ATOM      9  N   UNL     1      23.957  -6.813  13.763  1.00  0.00    -0.186 NA
ATOM     10  C   UNL     1      23.374  -7.100  12.622  1.00  0.00     0.193 C 
ATOM     11  N   UNL     1      23.371  -6.353  11.463  1.00  0.00    -0.370 N 
ATOM     12  N   UNL     1      22.659  -8.266  12.480  1.00  0.00    -0.370 N 
ATOM     13  H   UNL     1      23.857  -5.463  11.412  1.00  0.00     0.159 HD
ATOM     14  H   UNL     1      22.885  -6.668  10.631  1.00  0.00     0.159 HD
ATOM     15  H   UNL     1      22.207  -8.489  11.599  1.00  0.00     0.159 HD
ATOM     16  H   UNL     1      22.545  -8.947  13.221  1.00  0.00     0.159 HD
ENDBRANCH   7   9
ENDBRANCH   3   4
ENDBRANCH   2   3
ENDBRANCH   1   2
BRANCH   1  17
ATOM     17  C   UNL     1      21.903 -12.657  13.838  1.00  0.00     0.086 C 
BRANCH  17  18
ATOM     18  C   UNL     1      21.617 -12.189  12.413  1.00  0.00     0.115 C 
ATOM     19  N   UNL     1      20.393 -11.830  12.166  1.00  0.00    -0.137 NA
ATOM     20  N   UNL     1      22.688 -12.207  11.549  1.00  0.00    -0.386 N 
ATOM     21  H   UNL     1      23.610 -12.506  11.850  1.00  0.00     0.157 HD
ATOM     22  H   UNL     1      22.596 -11.917  10.582  1.00  0.00     0.157 HD
BRANCH  19  23
ATOM     23  S   UNL     1      19.941 -11.317  10.683  1.00  0.00     0.318 S 
ATOM     24  O   UNL     1      18.563 -10.857  10.746  1.00  0.00    -0.187 OA
ATOM     25  O   UNL     1      20.306 -12.331   9.706  1.00  0.00    -0.187 OA
BRANCH  23  26
ATOM     26  N   UNL     1      20.898  -9.931  10.323  1.00  0.00    -0.210 NA
ATOM     27  H   UNL     1      21.088  -9.292  11.105  1.00  0.00     0.139 HD
ATOM     28  H   UNL     1      20.666  -9.429   9.456  1.00  0.00     0.139 HD
ENDBRANCH  23  26
ENDBRANCH  19  23
ENDBRANCH  17  18
ENDBRANCH   1  17
TORSDOF 8
ENDMDL
MODEL 3
REMARK VINA RESULT:      -6.5     11.117     13.454
REMARK SMILES NC(N)=Nc1nc(CSCC/C(N)=N/S(N)(=O)=O)cs1
REMARK SMILES IDX 10 1 9 2 8 3 7 4 6 5 19 6 5 7 20 8 4 9 2 10 1 11 3 12 11 17
REMARK SMILES IDX 12 18 14 19 13 20 15 23 17 24 18 25 16 26
REMARK H PARENT 1 13 1 14 3 15 3 16 13 21 13 22 16 27 16 28
ROOT
ATOM      1  C   UNL     1      26.007  -8.735  20.781  1.00  0.00     0.078 C 
ENDROOT
BRANCH   1   2
ATOM      2  S   UNL     1      24.414  -9.590  20.582  1.00  0.00    -0.155 SA
BRANCH   2   3
ATOM      3  C   UNL     1      24.693 -10.277  18.935  1.00  0.00     0.126 C 
BRANCH   3   4
ATOM      4  C   UNL     1      23.986  -9.485  17.884  1.00  0.00     0.064 A 
ATOM      5  N   UNL     1      24.740  -8.961  16.863  1.00  0.00    -0.222 NA
ATOM      6  C   UNL     1      22.639  -9.237  17.855  1.00  0.00     0.093 A 
ATOM      7  C   UNL     1      23.938  -8.306  16.054  1.00  0.00     0.212 A 
ATOM      8  S   UNL     1      22.274  -8.291  16.473  1.00  0.00    -0.103 S 
BRANCH   7   9
ATOM      9  N   UNL     1      24.312  -7.649  14.926  1.00  0.00    -0.186 NA
ATOM     10  C   UNL     1      24.538  -8.364  13.849  1.00  0.00     0.193 C 
ATOM     11  N   UNL     1      24.924  -7.918  12.603  1.00  0.00    -0.370 N 
ATOM     12  N   UNL     1      24.395  -9.732  13.880  1.00  0.00    -0.370 N 
ATOM     13  H   UNL     1      25.070  -6.930  12.423  1.00  0.00     0.159 HD
ATOM     14  H   UNL     1      25.072  -8.560  11.833  1.00  0.00     0.159 HD
ATOM     15  H   UNL     1      24.568 -10.287  13.048  1.00  0.00     0.159 HD
ATOM     16  H   UNL     1      24.117 -10.247  14.707  1.00  0.00     0.159 HD
ENDBRANCH   7   9
ENDBRANCH   3   4
ENDBRANCH   2   3
ENDBRANCH   1   2
BRANCH   1  17
ATOM     17  C   UNL     1      25.835  -7.297  21.260  1.00  0.00     0.086 C 
BRANCH  17  18
ATOM     18  C   UNL     1      25.406  -6.357  20.136  1.00  0.00     0.115 C 
ATOM     19  N   UNL     1      24.552  -5.433  20.462  1.00  0.00    -0.137 NA
ATOM     20  N   UNL     1      25.969  -6.598  18.904  1.00  0.00    -0.386 N 
ATOM     21  H   UNL     1      26.634  -7.351  18.761  1.00  0.00     0.157 HD
ATOM     22  H   UNL     1      25.744  -6.028  18.095  1.00  0.00     0.157 HD
BRANCH  19  23
ATOM     23  S   UNL     1      23.997  -4.363  19.359  1.00  0.00     0.318 S 
ATOM     24  O   UNL     1      25.107  -3.541  18.905  1.00  0.00    -0.187 OA
ATOM     25  O   UNL     1      22.807  -3.718  19.890  1.00  0.00    -0.187 OA
BRANCH  23  26
ATOM     26  N   UNL     1      23.483  -5.278  17.993  1.00  0.00    -0.210 NA
ATOM     27  H   UNL     1      24.153  -5.967  17.628  1.00  0.00     0.139 HD
ATOM     28  H   UNL     1      23.012  -4.755  17.244  1.00  0.00     0.139 HD
ENDBRANCH  23  26
ENDBRANCH  19  23
ENDBRANCH  17  18
ENDBRANCH   1  17
TORSDOF 8
ENDMDL
