MODEL 1
REMARK VINA RESULT:      -4.6      0.000      0.000
REMARK SMILES Cc1nc(-c2ccc(OCC(C)C)c(C#N)c2)sc1C(=O)O
REMARK SMILES IDX 16 1 8 2 5 3 14 4 7 5 17 6 6 7 15 8 4 9 18 10 19 11 3 12
REMARK SMILES IDX 2 13 1 14 20 15 21 16 22 17 9 19 10 20 11 21 12 22 13 23
REMARK H PARENT 22 18
ROOT
ATOM      1  N   UNL     1     -22.824   7.321 -54.267  1.00  0.00    -0.192 NA
ATOM      2  C   UNL     1     -26.049   6.234 -53.381  1.00  0.00     0.137 A 
ATOM      3  C   UNL     1     -26.666   8.153 -51.462  1.00  0.00     0.012 A 
ATOM      4  C   UNL     1     -25.124   7.227 -53.076  1.00  0.00     0.095 A 
ATOM      5  C   UNL     1     -27.280   6.193 -52.734  1.00  0.00     0.048 A 
ATOM      6  C   UNL     1     -25.432   8.188 -52.113  1.00  0.00     0.034 A 
ATOM      7  C   UNL     1     -27.589   7.156 -51.772  1.00  0.00     0.015 A 
ATOM      8  C   UNL     1     -23.854   7.279 -53.733  1.00  0.00     0.103 C 
ENDROOT
BRANCH   3   9
ATOM      9  C   UNL     1     -26.985   9.147 -50.467  1.00  0.00     0.124 A 
ATOM     10  S   UNL     1     -25.806   9.530 -49.278  1.00  0.00    -0.106 S 
ATOM     11  C   UNL     1     -26.897  10.663 -48.595  1.00  0.00     0.135 A 
ATOM     12  N   UNL     1     -28.124   9.799 -50.390  1.00  0.00    -0.240 NA
ATOM     13  C   UNL     1     -28.073  10.667 -49.317  1.00  0.00     0.064 A 
ATOM     14  C   UNL     1     -29.258  11.505 -49.045  1.00  0.00     0.068 C 
BRANCH  11  15
ATOM     15  C   UNL     1     -26.512  11.419 -47.450  1.00  0.00     0.347 C 
ATOM     16  O   UNL     1     -26.045  12.573 -47.427  1.00  0.00    -0.245 OA
BRANCH  15  17
ATOM     17  O   UNL     1     -26.705  10.744 -46.269  1.00  0.00    -0.477 OA
ATOM     18  H   UNL     1     -27.658  10.598 -46.088  1.00  0.00     0.297 HD
ENDBRANCH  15  17
ENDBRANCH  11  15
ENDBRANCH   3   9
BRANCH   2  19
ATOM     19  O   UNL     1     -25.773   5.277 -54.322  1.00  0.00    -0.492 OA
BRANCH  19  20
ATOM     20  C   UNL     1     -26.697   4.204 -54.437  1.00  0.00     0.232 C 
BRANCH  20  21
ATOM     21  C   UNL     1     -25.982   2.870 -54.201  1.00  0.00     0.020 C 
ATOM     22  C   UNL     1     -26.248   1.885 -55.340  1.00  0.00     0.011 C 
ATOM     23  C   UNL     1     -24.480   3.094 -54.032  1.00  0.00     0.011 C 
ENDBRANCH  20  21
ENDBRANCH  19  20
ENDBRANCH   2  19
TORSDOF 6
ENDMDL
MODEL 2
REMARK VINA RESULT:      -4.5      2.765      4.006
REMARK SMILES Cc1nc(-c2ccc(OCC(C)C)c(C#N)c2)sc1C(=O)O
REMARK SMILES IDX 16 1 8 2 5 3 14 4 7 5 17 6 6 7 15 8 4 9 18 10 19 11 3 12
REMARK SMILES IDX 2 13 1 14 20 15 21 16 22 17 9 19 10 20 11 21 12 22 13 23
REMARK H PARENT 22 18
ROOT
ATOM      1  N   UNL     1     -22.073   4.217 -55.302  1.00  0.00    -0.192 NA
ATOM      2  C   UNL     1     -25.189   2.847 -54.418  1.00  0.00     0.137 A 
ATOM      3  C   UNL     1     -26.490   5.167 -53.597  1.00  0.00     0.012 A 
ATOM      4  C   UNL     1     -24.520   4.066 -54.464  1.00  0.00     0.095 A 
ATOM      5  C   UNL     1     -26.503   2.779 -53.965  1.00  0.00     0.048 A 
ATOM      6  C   UNL     1     -25.171   5.229 -54.052  1.00  0.00     0.034 A 
ATOM      7  C   UNL     1     -27.154   3.943 -53.554  1.00  0.00     0.015 A 
ATOM      8  C   UNL     1     -23.169   4.150 -54.926  1.00  0.00     0.103 C 
ENDROOT
BRANCH   3   9
ATOM      9  C   UNL     1     -27.163   6.369 -53.171  1.00  0.00     0.124 A 
ATOM     10  S   UNL     1     -26.543   7.224 -51.817  1.00  0.00    -0.106 S 
ATOM     11  C   UNL     1     -27.802   8.375 -51.997  1.00  0.00     0.135 A 
ATOM     12  N   UNL     1     -28.233   6.877 -53.743  1.00  0.00    -0.240 NA
ATOM     13  C   UNL     1     -28.598   8.027 -53.069  1.00  0.00     0.064 A 
ATOM     14  C   UNL     1     -29.785   8.764 -53.547  1.00  0.00     0.068 C 
BRANCH  11  15
ATOM     15  C   UNL     1     -27.890   9.478 -51.100  1.00  0.00     0.347 C 
ATOM     16  O   UNL     1     -27.259  10.551 -51.154  1.00  0.00    -0.245 OA
BRANCH  15  17
ATOM     17  O   UNL     1     -28.792   9.275 -50.084  1.00  0.00    -0.477 OA
ATOM     18  H   UNL     1     -28.671   8.396 -49.664  1.00  0.00     0.297 HD
ENDBRANCH  15  17
ENDBRANCH  11  15
ENDBRANCH   3   9
BRANCH   2  19
ATOM     19  O   UNL     1     -24.574   1.690 -54.817  1.00  0.00    -0.492 OA
BRANCH  19  20
ATOM     20  C   UNL     1     -25.062   1.080 -56.004  1.00  0.00     0.232 C 
BRANCH  20  21
ATOM     21  C   UNL     1     -24.027   1.215 -57.125  1.00  0.00     0.020 C 
ATOM     22  C   UNL     1     -23.901  -0.081 -57.927  1.00  0.00     0.011 C 
ATOM     23  C   UNL     1     -24.390   2.377 -58.047  1.00  0.00     0.011 C 
ENDBRANCH  20  21
ENDBRANCH  19  20
ENDBRANCH   2  19
TORSDOF 6
ENDMDL
MODEL 3
REMARK VINA RESULT:      -4.5      1.556      1.962
REMARK SMILES Cc1nc(-c2ccc(OCC(C)C)c(C#N)c2)sc1C(=O)O
REMARK SMILES IDX 16 1 8 2 5 3 14 4 7 5 17 6 6 7 15 8 4 9 18 10 19 11 3 12
REMARK SMILES IDX 2 13 1 14 20 15 21 16 22 17 9 19 10 20 11 21 12 22 13 23
REMARK H PARENT 22 18
ROOT
ATOM      1  N   UNL     1     -23.040   7.356 -53.861  1.00  0.00    -0.192 NA
ATOM      2  C   UNL     1     -26.375   7.310 -52.744  1.00  0.00     0.137 A 
ATOM      3  C   UNL     1     -26.174   9.118 -50.637  1.00  0.00     0.012 A 
ATOM      4  C   UNL     1     -25.149   7.905 -52.459  1.00  0.00     0.095 A 
ATOM      5  C   UNL     1     -27.500   7.613 -51.983  1.00  0.00     0.048 A 
ATOM      6  C   UNL     1     -25.048   8.810 -51.402  1.00  0.00     0.034 A 
ATOM      7  C   UNL     1     -27.399   8.519 -50.927  1.00  0.00     0.015 A 
ATOM      8  C   UNL     1     -23.985   7.601 -53.233  1.00  0.00     0.103 C 
ENDROOT
BRANCH   3   9
ATOM      9  C   UNL     1     -26.069  10.053 -49.544  1.00  0.00     0.124 A 
ATOM     10  S   UNL     1     -27.228   9.975 -48.279  1.00  0.00    -0.106 S 
ATOM     11  C   UNL     1     -26.438  11.286 -47.506  1.00  0.00     0.135 A 
ATOM     12  N   UNL     1     -25.143  10.980 -49.431  1.00  0.00    -0.240 NA
ATOM     13  C   UNL     1     -25.356  11.686 -48.263  1.00  0.00     0.064 A 
ATOM     14  C   UNL     1     -24.423  12.784 -47.936  1.00  0.00     0.068 C 
BRANCH  11  15
ATOM     15  C   UNL     1     -26.936  11.786 -46.268  1.00  0.00     0.347 C 
ATOM     16  O   UNL     1     -27.499  12.878 -46.064  1.00  0.00    -0.245 OA
BRANCH  15  17
ATOM     17  O   UNL     1     -26.744  10.918 -45.221  1.00  0.00    -0.477 OA
ATOM     18  H   UNL     1     -27.590  10.704 -44.771  1.00  0.00     0.297 HD
ENDBRANCH  15  17
ENDBRANCH  11  15
ENDBRANCH   3   9
BRANCH   2  19
ATOM     19  O   UNL     1     -26.503   6.418 -53.776  1.00  0.00    -0.492 OA
BRANCH  19  20
ATOM     20  C   UNL     1     -27.290   5.260 -53.529  1.00  0.00     0.232 C 
BRANCH  20  21
ATOM     21  C   UNL     1     -26.388   4.026 -53.438  1.00  0.00     0.020 C 
ATOM     22  C   UNL     1     -27.137   2.757 -53.849  1.00  0.00     0.011 C 
ATOM     23  C   UNL     1     -25.143   4.211 -54.302  1.00  0.00     0.011 C 
ENDBRANCH  20  21
ENDBRANCH  19  20
ENDBRANCH   2  19
TORSDOF 6
ENDMDL
