64929
  -OEChem-12212510443D

 37 38  0     0  0  0  0  0  0999 V2000
   -6.5659   -2.3601   -0.1210 Cl  0  0  0  0  0  0  0  0  0  0  0  0
    3.2730   -0.0031   -0.7867 O   0  0  0  0  0  0  0  0  0  0  0  0
    6.2486   -1.3048    0.7297 O   0  0  0  0  0  0  0  0  0  0  0  0
    5.7550   -0.6284   -1.3720 O   0  0  0  0  0  0  0  0  0  0  0  0
   -2.3066    2.6785    0.4952 O   0  0  0  0  0  0  0  0  0  0  0  0
    4.0295   -0.4536    0.3375 C   0  0  0  0  0  0  0  0  0  0  0  0
    3.3408   -1.6911    0.9053 C   0  0  0  0  0  0  0  0  0  0  0  0
    4.0987    0.6872    1.3484 C   0  0  0  0  0  0  0  0  0  0  0  0
    1.9782    0.3648   -0.5447 C   0  0  0  0  0  0  0  0  0  0  0  0
    5.4107   -0.7925   -0.2076 C   0  0  0  0  0  0  0  0  0  0  0  0
   -0.6571    1.1144   -0.0558 C   0  0  0  0  0  0  0  0  0  0  0  0
    0.9626   -0.5825   -0.6333 C   0  0  0  0  0  0  0  0  0  0  0  0
    1.6854    1.6842   -0.2133 C   0  0  0  0  0  0  0  0  0  0  0  0
   -0.3582   -0.2068   -0.3884 C   0  0  0  0  0  0  0  0  0  0  0  0
    0.3647    2.0600    0.0318 C   0  0  0  0  0  0  0  0  0  0  0  0
   -2.0347    1.5057    0.1988 C   0  0  0  0  0  0  0  0  0  0  0  0
   -3.1698    0.5374    0.1192 C   0  0  0  0  0  0  0  0  0  0  0  0
   -3.5279   -0.1515    1.2544 C   0  0  0  0  0  0  0  0  0  0  0  0
   -3.8107    0.3736   -1.0867 C   0  0  0  0  0  0  0  0  0  0  0  0
   -4.5874   -1.0557    1.1795 C   0  0  0  0  0  0  0  0  0  0  0  0
   -4.8703   -0.5305   -1.1616 C   0  0  0  0  0  0  0  0  0  0  0  0
   -5.2586   -1.2452   -0.0285 C   0  0  0  0  0  0  0  0  0  0  0  0
    3.1498   -2.4365    0.1248 H   0  0  0  0  0  0  0  0  0  0  0  0
    2.3939   -1.4652    1.4058 H   0  0  0  0  0  0  0  0  0  0  0  0
    3.9721   -2.1749    1.6600 H   0  0  0  0  0  0  0  0  0  0  0  0
    3.1441    0.8781    1.8485 H   0  0  0  0  0  0  0  0  0  0  0  0
    4.8167    0.4539    2.1437 H   0  0  0  0  0  0  0  0  0  0  0  0
    4.4360    1.6184    0.8792 H   0  0  0  0  0  0  0  0  0  0  0  0
    1.1773   -1.6089   -0.9158 H   0  0  0  0  0  0  0  0  0  0  0  0
    2.4671    2.4366   -0.1661 H   0  0  0  0  0  0  0  0  0  0  0  0
   -1.1223   -0.9734   -0.4730 H   0  0  0  0  0  0  0  0  0  0  0  0
    0.1577    3.0968    0.2836 H   0  0  0  0  0  0  0  0  0  0  0  0
   -3.0081   -0.0067    2.1965 H   0  0  0  0  0  0  0  0  0  0  0  0
   -3.5114    0.9282   -1.9708 H   0  0  0  0  0  0  0  0  0  0  0  0
    7.1308   -1.5153    0.3559 H   0  0  0  0  0  0  0  0  0  0  0  0
   -4.8790   -1.6057    2.0706 H   0  0  0  0  0  0  0  0  0  0  0  0
   -5.3841   -0.6678   -2.1097 H   0  0  0  0  0  0  0  0  0  0  0  0
  1 22  1  0  0  0  0
  2  6  1  0  0  0  0
  2  9  1  0  0  0  0
  3 10  1  0  0  0  0
  3 35  1  0  0  0  0
  4 10  2  0  0  0  0
  5 16  2  0  0  0  0
  6  7  1  0  0  0  0
  6  8  1  0  0  0  0
  6 10  1  0  0  0  0
  7 23  1  0  0  0  0
  7 24  1  0  0  0  0
  7 25  1  0  0  0  0
  8 26  1  0  0  0  0
  8 27  1  0  0  0  0
  8 28  1  0  0  0  0
  9 12  2  0  0  0  0
  9 13  1  0  0  0  0
 11 14  2  0  0  0  0
 11 15  1  0  0  0  0
 11 16  1  0  0  0  0
 12 14  1  0  0  0  0
 12 29  1  0  0  0  0
 13 15  2  0  0  0  0
 13 30  1  0  0  0  0
 14 31  1  0  0  0  0
 15 32  1  0  0  0  0
 16 17  1  0  0  0  0
 17 18  2  0  0  0  0
 17 19  1  0  0  0  0
 18 20  1  0  0  0  0
 18 33  1  0  0  0  0
 19 21  2  0  0  0  0
 19 34  1  0  0  0  0
 20 22  2  0  0  0  0
 20 36  1  0  0  0  0
 21 22  1  0  0  0  0
 21 37  1  0  0  0  0
M  END
> <PUBCHEM_COMPOUND_CID>
64929

> <PUBCHEM_CONFORMER_RMSD>
0.8

> <PUBCHEM_CONFORMER_DIVERSEORDER>
1
24
9
11
10
13
16
22
20
17
5
27
21
15
23
8
4
25
2
19
18
14
7
6
12
3
26

> <PUBCHEM_MMFF94_PARTIAL_CHARGES>
29
1 -0.18
10 0.66
11 0.09
12 -0.15
13 -0.15
14 -0.15
15 -0.15
16 0.4
17 0.09
18 -0.15
19 -0.15
2 -0.36
20 -0.15
21 -0.15
22 0.18
29 0.15
3 -0.65
30 0.15
31 0.15
32 0.15
33 0.15
34 0.15
35 0.5
36 0.15
37 0.15
4 -0.57
5 -0.57
6 0.34
9 0.08

> <PUBCHEM_EFFECTIVE_ROTOR_COUNT>
5

> <PUBCHEM_PHARMACOPHORE_FEATURES>
8
1 2 acceptor
1 3 acceptor
1 4 acceptor
1 5 acceptor
3 3 4 10 anion
3 6 7 8 hydrophobe
6 17 18 19 20 21 22 rings
6 9 11 12 13 14 15 rings

> <PUBCHEM_HEAVY_ATOM_COUNT>
22

> <PUBCHEM_ATOM_DEF_STEREO_COUNT>
0

> <PUBCHEM_ATOM_UDEF_STEREO_COUNT>
0

> <PUBCHEM_BOND_DEF_STEREO_COUNT>
0

> <PUBCHEM_BOND_UDEF_STEREO_COUNT>
0

> <PUBCHEM_ISOTOPIC_ATOM_COUNT>
0

> <PUBCHEM_COMPONENT_COUNT>
1

> <PUBCHEM_CACTVS_TAUTO_COUNT>
1

> <PUBCHEM_CONFORMER_ID>
0000FDA100000001

> <PUBCHEM_MMFF94_ENERGY>
82.9139

> <PUBCHEM_FEATURE_SELFOVERLAP>
40.667

> <PUBCHEM_SHAPE_FINGERPRINT>
10 15 12895353317738282919
10366900 7 18334861602073747194
106641 1 17917144000771997114
11089746 13 12396300395611270022
11315181 36 18187366519106216389
11545043 162 18059852810249259720
11796584 16 17385721404905236787
12166972 35 18040437723882869269
12236239 1 18113338583615609454
12293681 160 12540687128968428557
12516196 113 18410292527666027976
12596602 18 17703792547898681195
12633257 1 15913038863556540659
12760667 363 18335144211307056067
13288520 33 18410857655442064597
13533116 47 18269835470394340025
13583140 156 14979675429991256481
13668630 136 18410858776186403575
13685833 64 18336548313330674979
13782708 43 17988085461959920366
13862211 1 18409448081292876942
14123256 34 18340212972363754695
14178342 30 17916320341740125025
1420 363 18272652350486096870
1420 369 18412263952077751963
14341114 176 15195572290542109698
14848160 23 18336256912109348323
14849402 71 16128079174953948696
15183329 4 15068612782236245819
15188451 53 18410003338616798066
15788980 27 18410011035488303757
15880784 105 17846499257252558043
17349148 13 18334019384308483348
17844677 252 18131633361811834248
17857418 61 18260547809722156258
17870717 6 17167861976650195211
18222031 100 18187362138598368116
18927931 339 18343025467288426653
193927 3 18410584980299500925
200 152 18408882945480404005
20028762 73 18201439220134000367
20261772 1 18059853986690367230
20281389 69 10159693582169864294
20621476 66 10159692517186942194
20645477 56 9799689290238046345
21033648 29 17131254762983651880
21054139 6 18040999514743876362
21150785 3 17167865296158852814
21267235 1 18341899588824869302
21637258 2 17822002087226291298
2303208 19 17417539012597600838
23198884 109 14851601081767723303
23402539 116 18410293588628445149
23402655 69 10953457444394167168
23522609 53 18122098413771111964
23559900 14 17749955586619818949
25147074 1 18338256906681520437
270888 7 8934737582429185623
3004659 81 17967530207540974357
312425 54 17274835622847728899
351380 3 18411699893827907855
465052 167 18341054098394844302
5104073 3 18202562864976797265
559249 180 18411136918927258121
5718773 13 18261672675201887371
59682541 35 18271234041449225976
59682541 52 14635131426786898075
633830 44 10735868478756841048
7495541 125 18201997721043907040
76465 3 18409448111505081281
7970288 3 18411699919919984591
960060 61 15140958435694056288

> <PUBCHEM_SHAPE_MULTIPOLES>
431.14
15.15
2.09
1.15
1.49
0.52
0.06
-11.04
-0.11
-1.2
0.3
0.02
-0.14
-0.07

> <PUBCHEM_SHAPE_SELFOVERLAP>
920.02

> <PUBCHEM_SHAPE_VOLUME>
239.9

> <PUBCHEM_COORDINATE_TYPE>
2
5
10

$$$$
