MODEL 1
REMARK VINA RESULT:      -8.2      0.000      0.000
REMARK SMILES CC(C)(Oc1ccc(C(=O)c2ccc(Cl)cc2)cc1)C(=O)O
REMARK SMILES IDX 4 1 5 2 8 3 7 4 18 5 6 6 19 7 9 8 10 9 11 10 14 11 13 12
REMARK SMILES IDX 16 13 12 14 17 15 15 16 2 17 1 18 3 19 20 20 21 21 22 22
REMARK H PARENT 22 23
ROOT
ATOM      1  O   UNL     1      18.502  -0.590  16.137  1.00  0.00    -0.476 OA
ENDROOT
BRANCH   1   2
ATOM      2  C   UNL     1      18.824  -0.269  14.847  1.00  0.00     0.121 A 
ATOM      3  C   UNL     1      19.483   0.383  12.223  1.00  0.00     0.023 A 
ATOM      4  C   UNL     1      19.240  -0.945  12.571  1.00  0.00     0.016 A 
ATOM      5  C   UNL     1      19.395   1.385  13.190  1.00  0.00     0.016 A 
ATOM      6  C   UNL     1      18.910  -1.273  13.886  1.00  0.00     0.047 A 
ATOM      7  C   UNL     1      19.064   1.058  14.504  1.00  0.00     0.047 A 
BRANCH   3   8
ATOM      8  C   UNL     1      19.829   0.725  10.851  1.00  0.00     0.193 C 
ATOM      9  O   UNL     1      20.052   1.903  10.537  1.00  0.00    -0.289 OA
BRANCH   8  10
ATOM     10  C   UNL     1      19.931  -0.305   9.773  1.00  0.00     0.023 A 
ATOM     11  C   UNL     1      20.120  -2.199   7.788  1.00  0.00     0.041 A 
ATOM     12  C   UNL     1      19.193  -1.162   7.677  1.00  0.00     0.021 A 
ATOM     13  C   UNL     1      20.950  -2.274   8.906  1.00  0.00     0.021 A 
ATOM     14  C   UNL     1      19.098  -0.201   8.684  1.00  0.00     0.014 A 
ATOM     15  C   UNL     1      20.855  -1.314   9.913  1.00  0.00     0.014 A 
ATOM     16  Cl  UNL     1      20.238  -3.383   6.546  1.00  0.00    -0.084 Cl
ENDBRANCH   8  10
ENDBRANCH   3   8
ENDBRANCH   1   2
BRANCH   1  17
ATOM     17  C   UNL     1      17.151  -0.989  16.376  1.00  0.00     0.199 C 
ATOM     18  C   UNL     1      16.994  -2.432  15.907  1.00  0.00     0.069 C 
ATOM     19  C   UNL     1      16.234  -0.030  15.624  1.00  0.00     0.069 C 
BRANCH  17  20
ATOM     20  C   UNL     1      16.952  -0.874  17.883  1.00  0.00     0.347 C 
ATOM     21  O   UNL     1      16.554   0.134  18.453  1.00  0.00    -0.248 OA
BRANCH  20  22
ATOM     22  O   UNL     1      17.264  -2.012  18.555  1.00  0.00    -0.478 OA
ATOM     23  H   UNL     1      18.194  -2.284  18.401  1.00  0.00     0.296 HD
ENDBRANCH  20  22
ENDBRANCH  17  20
ENDBRANCH   1  17
TORSDOF 6
ENDMDL
MODEL 2
REMARK VINA RESULT:      -8.0      1.762      2.734
REMARK SMILES CC(C)(Oc1ccc(C(=O)c2ccc(Cl)cc2)cc1)C(=O)O
REMARK SMILES IDX 4 1 5 2 8 3 7 4 18 5 6 6 19 7 9 8 10 9 11 10 14 11 13 12
REMARK SMILES IDX 16 13 12 14 17 15 15 16 2 17 1 18 3 19 20 20 21 21 22 22
REMARK H PARENT 22 23
ROOT
ATOM      1  O   UNL     1      17.841   0.783  14.446  1.00  0.00    -0.476 OA
ENDROOT
BRANCH   1   2
ATOM      2  C   UNL     1      18.468   0.472  13.271  1.00  0.00     0.121 A 
ATOM      3  C   UNL     1      19.742  -0.161  10.879  1.00  0.00     0.023 A 
ATOM      4  C   UNL     1      19.618   1.171  11.272  1.00  0.00     0.016 A 
ATOM      5  C   UNL     1      19.228  -1.177  11.686  1.00  0.00     0.016 A 
ATOM      6  C   UNL     1      18.980   1.489  12.471  1.00  0.00     0.047 A 
ATOM      7  C   UNL     1      18.590  -0.859  12.885  1.00  0.00     0.047 A 
BRANCH   3   8
ATOM      8  C   UNL     1      20.407  -0.493   9.628  1.00  0.00     0.193 C 
ATOM      9  O   UNL     1      21.611  -0.786   9.619  1.00  0.00    -0.289 OA
BRANCH   8  10
ATOM     10  C   UNL     1      19.689  -0.496   8.317  1.00  0.00     0.023 A 
ATOM     11  C   UNL     1      18.369  -0.504   5.905  1.00  0.00     0.041 A 
ATOM     12  C   UNL     1      18.761   0.704   6.482  1.00  0.00     0.021 A 
ATOM     13  C   UNL     1      18.646  -1.708   6.553  1.00  0.00     0.021 A 
ATOM     14  C   UNL     1      19.432   0.707   7.705  1.00  0.00     0.014 A 
ATOM     15  C   UNL     1      19.316  -1.705   7.776  1.00  0.00     0.014 A 
ATOM     16  Cl  UNL     1      17.543  -0.509   4.396  1.00  0.00    -0.084 Cl
ENDBRANCH   8  10
ENDBRANCH   3   8
ENDBRANCH   1   2
BRANCH   1  17
ATOM     17  C   UNL     1      18.615   0.646  15.639  1.00  0.00     0.199 C 
ATOM     18  C   UNL     1      19.104   2.032  16.047  1.00  0.00     0.069 C 
ATOM     19  C   UNL     1      19.765  -0.313  15.348  1.00  0.00     0.069 C 
BRANCH  17  20
ATOM     20  C   UNL     1      17.664   0.068  16.679  1.00  0.00     0.347 C 
ATOM     21  O   UNL     1      16.467   0.321  16.740  1.00  0.00    -0.248 OA
BRANCH  20  22
ATOM     22  O   UNL     1      18.272  -0.774  17.555  1.00  0.00    -0.478 OA
ATOM     23  H   UNL     1      17.674  -1.034  18.286  1.00  0.00     0.296 HD
ENDBRANCH  20  22
ENDBRANCH  17  20
ENDBRANCH   1  17
TORSDOF 6
ENDMDL
MODEL 3
REMARK VINA RESULT:      -7.4      2.151      3.023
REMARK SMILES CC(C)(Oc1ccc(C(=O)c2ccc(Cl)cc2)cc1)C(=O)O
REMARK SMILES IDX 4 1 5 2 8 3 7 4 18 5 6 6 19 7 9 8 10 9 11 10 14 11 13 12
REMARK SMILES IDX 16 13 12 14 17 15 15 16 2 17 1 18 3 19 20 20 21 21 22 22
REMARK H PARENT 22 23
ROOT
ATOM      1  O   UNL     1      18.756   0.038  14.062  1.00  0.00    -0.476 OA
ENDROOT
BRANCH   1   2
ATOM      2  C   UNL     1      19.088   0.107  12.737  1.00  0.00     0.121 A 
ATOM      3  C   UNL     1      19.767   0.246  10.042  1.00  0.00     0.023 A 
ATOM      4  C   UNL     1      19.436  -0.982  10.615  1.00  0.00     0.016 A 
ATOM      5  C   UNL     1      19.757   1.404  10.819  1.00  0.00     0.016 A 
ATOM      6  C   UNL     1      19.095  -1.052  11.966  1.00  0.00     0.047 A 
ATOM      7  C   UNL     1      19.417   1.334  12.170  1.00  0.00     0.047 A 
BRANCH   3   8
ATOM      8  C   UNL     1      20.123   0.319   8.633  1.00  0.00     0.193 C 
ATOM      9  O   UNL     1      21.218   0.787   8.288  1.00  0.00    -0.289 OA
BRANCH   8  10
ATOM     10  C   UNL     1      19.209  -0.158   7.551  1.00  0.00     0.023 A 
ATOM     11  C   UNL     1      17.526  -1.036   5.561  1.00  0.00     0.041 A 
ATOM     12  C   UNL     1      17.771   0.329   5.717  1.00  0.00     0.021 A 
ATOM     13  C   UNL     1      18.135  -1.955   6.416  1.00  0.00     0.021 A 
ATOM     14  C   UNL     1      18.625   0.774   6.726  1.00  0.00     0.014 A 
ATOM     15  C   UNL     1      18.989  -1.510   7.425  1.00  0.00     0.014 A 
ATOM     16  Cl  UNL     1      16.474  -1.584   4.316  1.00  0.00    -0.084 Cl
ENDBRANCH   8  10
ENDBRANCH   3   8
ENDBRANCH   1   2
BRANCH   1  17
ATOM     17  C   UNL     1      17.416   0.398  14.403  1.00  0.00     0.199 C 
ATOM     18  C   UNL     1      16.799   1.112  13.206  1.00  0.00     0.069 C 
ATOM     19  C   UNL     1      17.466   1.281  15.646  1.00  0.00     0.069 C 
BRANCH  17  20
ATOM     20  C   UNL     1      16.701  -0.917  14.691  1.00  0.00     0.347 C 
ATOM     21  O   UNL     1      17.188  -1.847  15.323  1.00  0.00    -0.248 OA
BRANCH  20  22
ATOM     22  O   UNL     1      15.447  -0.972  14.171  1.00  0.00    -0.478 OA
ATOM     23  H   UNL     1      14.831  -0.370  14.640  1.00  0.00     0.296 HD
ENDBRANCH  20  22
ENDBRANCH  17  20
ENDBRANCH   1  17
TORSDOF 6
ENDMDL
