MODEL 1
REMARK VINA RESULT:      -4.9      0.000      0.000
REMARK SMILES CC(C)(Oc1ccc(C(=O)c2ccc(Cl)cc2)cc1)C(=O)O
REMARK SMILES IDX 4 1 5 2 8 3 7 4 18 5 6 6 19 7 9 8 10 9 11 10 14 11 13 12
REMARK SMILES IDX 16 13 12 14 17 15 15 16 2 17 1 18 3 19 20 20 21 21 22 22
REMARK H PARENT 22 23
ROOT
ATOM      1  O   UNL     1     -28.135   6.813 -53.558  1.00  0.00    -0.476 OA
ENDROOT
BRANCH   1   2
ATOM      2  C   UNL     1     -27.273   5.777 -53.792  1.00  0.00     0.121 A 
ATOM      3  C   UNL     1     -25.521   3.669 -54.273  1.00  0.00     0.023 A 
ATOM      4  C   UNL     1     -25.185   4.961 -54.676  1.00  0.00     0.016 A 
ATOM      5  C   UNL     1     -26.736   3.433 -53.628  1.00  0.00     0.016 A 
ATOM      6  C   UNL     1     -26.063   6.018 -54.435  1.00  0.00     0.047 A 
ATOM      7  C   UNL     1     -27.614   4.490 -53.388  1.00  0.00     0.047 A 
BRANCH   3   8
ATOM      8  C   UNL     1     -24.606   2.566 -54.525  1.00  0.00     0.193 C 
ATOM      9  O   UNL     1     -23.744   2.265 -53.686  1.00  0.00    -0.289 OA
BRANCH   8  10
ATOM     10  C   UNL     1     -24.655   1.757 -55.781  1.00  0.00     0.023 A 
ATOM     11  C   UNL     1     -24.745   0.268 -58.090  1.00  0.00     0.041 A 
ATOM     12  C   UNL     1     -23.692   1.158 -57.874  1.00  0.00     0.021 A 
ATOM     13  C   UNL     1     -25.752   0.134 -57.134  1.00  0.00     0.021 A 
ATOM     14  C   UNL     1     -23.646   1.913 -56.702  1.00  0.00     0.014 A 
ATOM     15  C   UNL     1     -25.706   0.889 -55.963  1.00  0.00     0.014 A 
ATOM     16  Cl  UNL     1     -24.800  -0.664 -59.535  1.00  0.00    -0.084 Cl
ENDBRANCH   8  10
ENDBRANCH   3   8
ENDBRANCH   1   2
BRANCH   1  17
ATOM     17  C   UNL     1     -27.925   7.558 -52.357  1.00  0.00     0.199 C 
ATOM     18  C   UNL     1     -27.588   8.994 -52.745  1.00  0.00     0.069 C 
ATOM     19  C   UNL     1     -26.800   6.887 -51.576  1.00  0.00     0.069 C 
BRANCH  17  20
ATOM     20  C   UNL     1     -29.243   7.486 -51.596  1.00  0.00     0.347 C 
ATOM     21  O   UNL     1     -30.171   6.741 -51.887  1.00  0.00    -0.248 OA
BRANCH  20  22
ATOM     22  O   UNL     1     -29.303   8.341 -50.542  1.00  0.00    -0.478 OA
ATOM     23  H   UNL     1     -28.487   8.308 -49.999  1.00  0.00     0.296 HD
ENDBRANCH  20  22
ENDBRANCH  17  20
ENDBRANCH   1  17
TORSDOF 6
ENDMDL
MODEL 2
REMARK VINA RESULT:      -4.8      2.030      2.707
REMARK SMILES CC(C)(Oc1ccc(C(=O)c2ccc(Cl)cc2)cc1)C(=O)O
REMARK SMILES IDX 4 1 5 2 8 3 7 4 18 5 6 6 19 7 9 8 10 9 11 10 14 11 13 12
REMARK SMILES IDX 16 13 12 14 17 15 15 16 2 17 1 18 3 19 20 20 21 21 22 22
REMARK H PARENT 22 23
ROOT
ATOM      1  O   UNL     1     -27.863   6.435 -53.927  1.00  0.00    -0.476 OA
ENDROOT
BRANCH   1   2
ATOM      2  C   UNL     1     -26.782   5.598 -53.976  1.00  0.00     0.121 A 
ATOM      3  C   UNL     1     -24.583   3.895 -54.072  1.00  0.00     0.023 A 
ATOM      4  C   UNL     1     -25.834   3.399 -53.704  1.00  0.00     0.016 A 
ATOM      5  C   UNL     1     -24.435   5.245 -54.393  1.00  0.00     0.016 A 
ATOM      6  C   UNL     1     -26.936   4.252 -53.656  1.00  0.00     0.047 A 
ATOM      7  C   UNL     1     -25.537   6.097 -54.344  1.00  0.00     0.047 A 
BRANCH   3   8
ATOM      8  C   UNL     1     -23.433   3.005 -54.121  1.00  0.00     0.193 C 
ATOM      9  O   UNL     1     -23.170   2.269 -53.158  1.00  0.00    -0.289 OA
BRANCH   8  10
ATOM     10  C   UNL     1     -22.529   2.931 -55.309  1.00  0.00     0.023 A 
ATOM     11  C   UNL     1     -20.867   2.796 -57.495  1.00  0.00     0.041 A 
ATOM     12  C   UNL     1     -20.358   3.180 -56.254  1.00  0.00     0.021 A 
ATOM     13  C   UNL     1     -22.219   2.481 -57.627  1.00  0.00     0.021 A 
ATOM     14  C   UNL     1     -21.202   3.247 -55.145  1.00  0.00     0.014 A 
ATOM     15  C   UNL     1     -23.063   2.550 -56.518  1.00  0.00     0.014 A 
ATOM     16  Cl  UNL     1     -19.826   2.711 -58.862  1.00  0.00    -0.084 Cl
ENDBRANCH   8  10
ENDBRANCH   3   8
ENDBRANCH   1   2
BRANCH   1  17
ATOM     17  C   UNL     1     -27.975   7.265 -52.770  1.00  0.00     0.199 C 
ATOM     18  C   UNL     1     -27.302   8.598 -53.077  1.00  0.00     0.069 C 
ATOM     19  C   UNL     1     -27.318   6.538 -51.601  1.00  0.00     0.069 C 
BRANCH  17  20
ATOM     20  C   UNL     1     -29.471   7.442 -52.538  1.00  0.00     0.347 C 
ATOM     21  O   UNL     1     -30.094   6.928 -51.617  1.00  0.00    -0.248 OA
BRANCH  20  22
ATOM     22  O   UNL     1     -30.068   8.237 -53.463  1.00  0.00    -0.478 OA
ATOM     23  H   UNL     1     -29.515   9.014 -53.689  1.00  0.00     0.296 HD
ENDBRANCH  20  22
ENDBRANCH  17  20
ENDBRANCH   1  17
TORSDOF 6
ENDMDL
MODEL 3
REMARK VINA RESULT:      -4.8      3.577      7.690
REMARK SMILES CC(C)(Oc1ccc(C(=O)c2ccc(Cl)cc2)cc1)C(=O)O
REMARK SMILES IDX 4 1 5 2 8 3 7 4 18 5 6 6 19 7 9 8 10 9 11 10 14 11 13 12
REMARK SMILES IDX 16 13 12 14 17 15 15 16 2 17 1 18 3 19 20 20 21 21 22 22
REMARK H PARENT 22 23
ROOT
ATOM      1  O   UNL     1     -26.816   2.076 -56.182  1.00  0.00    -0.476 OA
ENDROOT
BRANCH   1   2
ATOM      2  C   UNL     1     -27.006   3.113 -55.311  1.00  0.00     0.121 A 
ATOM      3  C   UNL     1     -27.395   5.222 -53.537  1.00  0.00     0.023 A 
ATOM      4  C   UNL     1     -26.633   4.119 -53.152  1.00  0.00     0.016 A 
ATOM      5  C   UNL     1     -27.960   5.269 -54.811  1.00  0.00     0.016 A 
ATOM      6  C   UNL     1     -26.438   3.062 -54.041  1.00  0.00     0.047 A 
ATOM      7  C   UNL     1     -27.765   4.212 -55.700  1.00  0.00     0.047 A 
BRANCH   3   8
ATOM      8  C   UNL     1     -27.598   6.325 -52.609  1.00  0.00     0.193 C 
ATOM      9  O   UNL     1     -28.731   6.570 -52.169  1.00  0.00    -0.289 OA
BRANCH   8  10
ATOM     10  C   UNL     1     -26.478   7.200 -52.148  1.00  0.00     0.023 A 
ATOM     11  C   UNL     1     -24.416   8.809 -51.301  1.00  0.00     0.041 A 
ATOM     12  C   UNL     1     -25.406   8.412 -50.402  1.00  0.00     0.021 A 
ATOM     13  C   UNL     1     -24.473   8.390 -52.631  1.00  0.00     0.021 A 
ATOM     14  C   UNL     1     -26.451   7.594 -50.832  1.00  0.00     0.014 A 
ATOM     15  C   UNL     1     -25.519   7.573 -53.060  1.00  0.00     0.014 A 
ATOM     16  Cl  UNL     1     -23.126   9.816 -50.771  1.00  0.00    -0.084 Cl
ENDBRANCH   8  10
ENDBRANCH   3   8
ENDBRANCH   1   2
BRANCH   1  17
ATOM     17  C   UNL     1     -25.702   2.184 -57.069  1.00  0.00     0.199 C 
ATOM     18  C   UNL     1     -25.379   3.663 -57.246  1.00  0.00     0.069 C 
ATOM     19  C   UNL     1     -26.078   1.509 -58.384  1.00  0.00     0.069 C 
BRANCH  17  20
ATOM     20  C   UNL     1     -24.559   1.448 -56.379  1.00  0.00     0.347 C 
ATOM     21  O   UNL     1     -23.602   1.997 -55.849  1.00  0.00    -0.248 OA
BRANCH  20  22
ATOM     22  O   UNL     1     -24.696   0.096 -56.406  1.00  0.00    -0.478 OA
ATOM     23  H   UNL     1     -25.280  -0.197 -57.137  1.00  0.00     0.296 HD
ENDBRANCH  20  22
ENDBRANCH  17  20
ENDBRANCH   1  17
TORSDOF 6
ENDMDL
