MODEL 1
REMARK VINA RESULT:      -4.3      0.000      0.000
REMARK SMILES NS(=O)(=O)c1cc2c(cc1Cl)NCNS2(=O)=O
REMARK SMILES IDX 2 1 3 2 4 3 5 4 10 5 9 6 6 7 8 8 7 9 12 10 15 11 13 12 16 13
REMARK SMILES IDX 17 14 14 15 11 16 1 19
REMARK H PARENT 12 17 14 18 1 20 1 21
ROOT
ATOM      1  S   UNL     1     -12.116   1.956 -44.980  1.00  0.00     0.239 S 
ATOM      2  O   UNL     1     -11.046   1.855 -45.961  1.00  0.00    -0.207 OA
ATOM      3  O   UNL     1     -13.334   1.181 -45.151  1.00  0.00    -0.207 OA
ENDROOT
BRANCH   1   4
ATOM      4  C   UNL     1     -11.448   1.593 -43.402  1.00  0.00     0.102 A 
ATOM      5  C   UNL     1     -10.949   0.332 -43.083  1.00  0.00     0.063 A 
ATOM      6  C   UNL     1     -10.418   0.088 -41.812  1.00  0.00     0.049 A 
ATOM      7  C   UNL     1     -11.418   2.609 -42.453  1.00  0.00     0.047 A 
ATOM      8  C   UNL     1     -10.364   1.096 -40.835  1.00  0.00     0.057 A 
ATOM      9  C   UNL     1     -10.881   2.352 -41.189  1.00  0.00     0.107 A 
ATOM     10  N   UNL     1      -9.849   0.790 -39.585  1.00  0.00    -0.370 N 
ATOM     11  S   UNL     1     -10.899   3.674 -40.018  1.00  0.00     0.244 S 
ATOM     12  C   UNL     1      -9.647   1.794 -38.564  1.00  0.00     0.214 C 
ATOM     13  O   UNL     1      -9.706   4.458 -40.271  1.00  0.00    -0.207 OA
ATOM     14  O   UNL     1     -12.220   4.269 -40.036  1.00  0.00    -0.207 OA
ATOM     15  N   UNL     1     -10.716   2.810 -38.555  1.00  0.00    -0.193 NA
ATOM     16  Cl  UNL     1     -10.961  -0.966 -44.223  1.00  0.00    -0.083 Cl
ATOM     17  H   UNL     1      -9.450  -0.130 -39.438  1.00  0.00     0.161 HD
ATOM     18  H   UNL     1     -11.575   2.532 -38.063  1.00  0.00     0.143 HD
ENDBRANCH   1   4
BRANCH   1  19
ATOM     19  N   UNL     1     -12.532   3.600 -44.780  1.00  0.00    -0.225 NA
ATOM     20  H   UNL     1     -13.197   4.009 -45.448  1.00  0.00     0.137 HD
ATOM     21  H   UNL     1     -12.638   3.952 -43.821  1.00  0.00     0.137 HD
ENDBRANCH   1  19
TORSDOF 2
ENDMDL
MODEL 2
REMARK VINA RESULT:      -4.1     19.674     20.587
REMARK SMILES NS(=O)(=O)c1cc2c(cc1Cl)NCNS2(=O)=O
REMARK SMILES IDX 2 1 3 2 4 3 5 4 10 5 9 6 6 7 8 8 7 9 12 10 15 11 13 12 16 13
REMARK SMILES IDX 17 14 14 15 11 16 1 19
REMARK H PARENT 12 17 14 18 1 20 1 21
ROOT
ATOM      1  S   UNL     1     -27.372   3.861 -55.160  1.00  0.00     0.239 S 
ATOM      2  O   UNL     1     -26.891   4.106 -56.511  1.00  0.00    -0.207 OA
ATOM      3  O   UNL     1     -26.924   2.686 -54.431  1.00  0.00    -0.207 OA
ENDROOT
BRANCH   1   4
ATOM      4  C   UNL     1     -27.025   5.278 -54.191  1.00  0.00     0.102 A 
ATOM      5  C   UNL     1     -25.723   5.718 -53.964  1.00  0.00     0.063 A 
ATOM      6  C   UNL     1     -25.493   6.858 -53.189  1.00  0.00     0.049 A 
ATOM      7  C   UNL     1     -28.096   5.976 -53.643  1.00  0.00     0.047 A 
ATOM      8  C   UNL     1     -26.553   7.592 -52.630  1.00  0.00     0.057 A 
ATOM      9  C   UNL     1     -27.851   7.117 -52.874  1.00  0.00     0.107 A 
ATOM     10  N   UNL     1     -26.263   8.700 -51.851  1.00  0.00    -0.370 N 
ATOM     11  S   UNL     1     -29.250   7.942 -52.182  1.00  0.00     0.244 S 
ATOM     12  C   UNL     1     -27.293   9.577 -51.338  1.00  0.00     0.214 C 
ATOM     13  O   UNL     1     -29.740   8.843 -53.206  1.00  0.00    -0.207 OA
ATOM     14  O   UNL     1     -30.104   6.941 -51.576  1.00  0.00    -0.207 OA
ATOM     15  N   UNL     1     -28.506   8.844 -50.935  1.00  0.00    -0.193 NA
ATOM     16  Cl  UNL     1     -24.357   4.889 -54.619  1.00  0.00    -0.083 Cl
ATOM     17  H   UNL     1     -25.298   8.999 -51.773  1.00  0.00     0.161 HD
ATOM     18  H   UNL     1     -28.461   8.410 -50.003  1.00  0.00     0.143 HD
ENDBRANCH   1   4
BRANCH   1  19
ATOM     19  N   UNL     1     -29.079   3.889 -55.166  1.00  0.00    -0.225 NA
ATOM     20  H   UNL     1     -29.543   4.667 -55.653  1.00  0.00     0.137 HD
ATOM     21  H   UNL     1     -29.571   2.991 -55.256  1.00  0.00     0.137 HD
ENDBRANCH   1  19
TORSDOF 2
ENDMDL
MODEL 3
REMARK VINA RESULT:      -4.1     18.329     19.610
REMARK SMILES NS(=O)(=O)c1cc2c(cc1Cl)NCNS2(=O)=O
REMARK SMILES IDX 2 1 3 2 4 3 5 4 10 5 9 6 6 7 8 8 7 9 12 10 15 11 13 12 16 13
REMARK SMILES IDX 17 14 14 15 11 16 1 19
REMARK H PARENT 12 17 14 18 1 20 1 21
ROOT
ATOM      1  S   UNL     1     -23.674   3.522 -54.761  1.00  0.00     0.239 S 
ATOM      2  O   UNL     1     -23.444   2.371 -53.901  1.00  0.00    -0.207 OA
ATOM      3  O   UNL     1     -23.632   3.371 -56.206  1.00  0.00    -0.207 OA
ENDROOT
BRANCH   1   4
ATOM      4  C   UNL     1     -25.216   4.230 -54.325  1.00  0.00     0.102 A 
ATOM      5  C   UNL     1     -26.416   3.541 -54.482  1.00  0.00     0.063 A 
ATOM      6  C   UNL     1     -27.624   4.143 -54.115  1.00  0.00     0.049 A 
ATOM      7  C   UNL     1     -25.221   5.519 -53.804  1.00  0.00     0.047 A 
ATOM      8  C   UNL     1     -27.662   5.439 -53.575  1.00  0.00     0.057 A 
ATOM      9  C   UNL     1     -26.436   6.106 -53.437  1.00  0.00     0.107 A 
ATOM     10  N   UNL     1     -28.891   5.994 -53.252  1.00  0.00    -0.370 N 
ATOM     11  S   UNL     1     -26.380   7.756 -52.809  1.00  0.00     0.244 S 
ATOM     12  C   UNL     1     -29.012   7.271 -52.584  1.00  0.00     0.214 C 
ATOM     13  O   UNL     1     -26.105   7.642 -51.390  1.00  0.00    -0.207 OA
ATOM     14  O   UNL     1     -25.537   8.540 -53.688  1.00  0.00    -0.207 OA
ATOM     15  N   UNL     1     -28.002   8.242 -53.041  1.00  0.00    -0.193 NA
ATOM     16  Cl  UNL     1     -26.467   1.939 -55.125  1.00  0.00    -0.083 Cl
ATOM     17  H   UNL     1     -29.720   5.417 -53.337  1.00  0.00     0.161 HD
ATOM     18  H   UNL     1     -28.228   8.721 -53.922  1.00  0.00     0.143 HD
ENDBRANCH   1   4
BRANCH   1  19
ATOM     19  N   UNL     1     -22.608   4.776 -54.306  1.00  0.00    -0.225 NA
ATOM     20  H   UNL     1     -23.012   5.702 -54.118  1.00  0.00     0.137 HD
ATOM     21  H   UNL     1     -21.821   4.534 -53.691  1.00  0.00     0.137 HD
ENDBRANCH   1  19
TORSDOF 2
ENDMDL
