MODEL 1
REMARK VINA RESULT:      -6.3      0.000      0.000
REMARK SMILES NS(=O)(=O)c1cc2c(cc1C(F)(F)F)NCNS2(=O)=O
REMARK SMILES IDX 18 1 19 2 20 3 15 4 17 5 7 6 8 7 5 8 10 9 6 10 16 11 9 12
REMARK SMILES IDX 2 15 3 16 4 17 1 18 11 21 12 22 13 23 14 24
REMARK H PARENT 15 13 17 14 1 19 1 20
ROOT
ATOM      1  S   UNL     1      25.642  -6.869  20.035  1.00  0.00     0.244 S 
ATOM      2  O   UNL     1      25.030  -7.001  21.343  1.00  0.00    -0.207 OA
ATOM      3  O   UNL     1      26.893  -7.526  19.709  1.00  0.00    -0.207 OA
ATOM      4  N   UNL     1      23.670  -5.094  18.435  1.00  0.00    -0.370 N 
ATOM      5  N   UNL     1      25.779  -5.216  19.629  1.00  0.00    -0.193 NA
ATOM      6  C   UNL     1      24.429  -7.399  18.866  1.00  0.00     0.107 A 
ATOM      7  C   UNL     1      23.605  -6.462  18.223  1.00  0.00     0.056 A 
ATOM      8  C   UNL     1      23.425  -9.232  17.669  1.00  0.00     0.095 A 
ATOM      9  C   UNL     1      22.596  -8.329  17.009  1.00  0.00     0.078 A 
ATOM     10  C   UNL     1      24.349  -8.769  18.600  1.00  0.00     0.046 A 
ATOM     11  C   UNL     1      24.496  -4.508  19.467  1.00  0.00     0.214 C 
ATOM     12  C   UNL     1      22.690  -6.960  17.281  1.00  0.00     0.041 A 
ATOM     13  H   UNL     1      22.998  -4.499  17.963  1.00  0.00     0.161 HD
ATOM     14  H   UNL     1      26.505  -4.956  18.950  1.00  0.00     0.143 HD
ENDROOT
BRANCH   8  15
ATOM     15  S   UNL     1      23.335 -10.950  17.351  1.00  0.00     0.238 S 
ATOM     16  O   UNL     1      21.968 -11.353  17.670  1.00  0.00    -0.207 OA
ATOM     17  O   UNL     1      23.855 -11.120  15.998  1.00  0.00    -0.207 OA
BRANCH  15  18
ATOM     18  N   UNL     1      24.384 -11.774  18.436  1.00  0.00    -0.225 NA
ATOM     19  H   UNL     1      23.918 -12.347  19.153  1.00  0.00     0.137 HD
ATOM     20  H   UNL     1      25.158 -12.297  18.003  1.00  0.00     0.137 HD
ENDBRANCH  15  18
ENDBRANCH   8  15
BRANCH   9  21
ATOM     21  C   UNL     1      21.595  -8.790  16.000  1.00  0.00     0.417 C 
ATOM     22  F   UNL     1      22.129  -9.588  15.029  1.00  0.00    -0.166 F 
ATOM     23  F   UNL     1      20.574  -9.516  16.539  1.00  0.00    -0.166 F 
ATOM     24  F   UNL     1      21.003  -7.753  15.340  1.00  0.00    -0.166 F 
ENDBRANCH   9  21
TORSDOF 3
ENDMDL
MODEL 2
REMARK VINA RESULT:      -6.3      3.514      5.734
REMARK SMILES NS(=O)(=O)c1cc2c(cc1C(F)(F)F)NCNS2(=O)=O
REMARK SMILES IDX 18 1 19 2 20 3 15 4 17 5 7 6 8 7 5 8 10 9 6 10 16 11 9 12
REMARK SMILES IDX 2 15 3 16 4 17 1 18 11 21 12 22 13 23 14 24
REMARK H PARENT 15 13 17 14 1 19 1 20
ROOT
ATOM      1  S   UNL     1      23.155  -7.737  14.276  1.00  0.00     0.244 S 
ATOM      2  O   UNL     1      21.706  -7.756  14.226  1.00  0.00    -0.207 OA
ATOM      3  O   UNL     1      23.916  -6.564  13.892  1.00  0.00    -0.207 OA
ATOM      4  N   UNL     1      23.927 -10.532  15.369  1.00  0.00    -0.370 N 
ATOM      5  N   UNL     1      23.777  -9.084  13.427  1.00  0.00    -0.193 NA
ATOM      6  C   UNL     1      23.599  -8.155  15.933  1.00  0.00     0.107 A 
ATOM      7  C   UNL     1      23.922  -9.479  16.270  1.00  0.00     0.056 A 
ATOM      8  C   UNL     1      24.001  -7.394  18.182  1.00  0.00     0.095 A 
ATOM      9  C   UNL     1      24.334  -8.695  18.549  1.00  0.00     0.078 A 
ATOM     10  C   UNL     1      23.635  -7.117  16.869  1.00  0.00     0.046 A 
ATOM     11  C   UNL     1      23.443 -10.395  14.013  1.00  0.00     0.214 C 
ATOM     12  C   UNL     1      24.298  -9.723  17.601  1.00  0.00     0.041 A 
ATOM     13  H   UNL     1      24.124 -11.464  15.716  1.00  0.00     0.161 HD
ATOM     14  H   UNL     1      24.732  -9.006  13.056  1.00  0.00     0.143 HD
ENDROOT
BRANCH   8  15
ATOM     15  S   UNL     1      24.038  -6.084  19.342  1.00  0.00     0.238 S 
ATOM     16  O   UNL     1      23.051  -6.418  20.366  1.00  0.00    -0.207 OA
ATOM     17  O   UNL     1      25.443  -5.923  19.700  1.00  0.00    -0.207 OA
BRANCH  15  18
ATOM     18  N   UNL     1      23.513  -4.640  18.569  1.00  0.00    -0.225 NA
ATOM     19  H   UNL     1      23.152  -3.909  19.197  1.00  0.00     0.137 HD
ATOM     20  H   UNL     1      24.164  -4.237  17.882  1.00  0.00     0.137 HD
ENDBRANCH  15  18
ENDBRANCH   8  15
BRANCH   9  21
ATOM     21  C   UNL     1      24.737  -9.027  19.949  1.00  0.00     0.417 C 
ATOM     22  F   UNL     1      25.773  -8.268  20.412  1.00  0.00    -0.166 F 
ATOM     23  F   UNL     1      23.733  -8.857  20.859  1.00  0.00    -0.166 F 
ATOM     24  F   UNL     1      25.141 -10.323  20.083  1.00  0.00    -0.166 F 
ENDBRANCH   9  21
TORSDOF 3
ENDMDL
MODEL 3
REMARK VINA RESULT:      -6.1      2.631      3.471
REMARK SMILES NS(=O)(=O)c1cc2c(cc1C(F)(F)F)NCNS2(=O)=O
REMARK SMILES IDX 18 1 19 2 20 3 15 4 17 5 7 6 8 7 5 8 10 9 6 10 16 11 9 12
REMARK SMILES IDX 2 15 3 16 4 17 1 18 11 21 12 22 13 23 14 24
REMARK H PARENT 15 13 17 14 1 19 1 20
ROOT
ATOM      1  S   UNL     1      24.008  -6.053  19.275  1.00  0.00     0.244 S 
ATOM      2  O   UNL     1      25.458  -6.075  19.266  1.00  0.00    -0.207 OA
ATOM      3  O   UNL     1      23.260  -4.889  18.844  1.00  0.00    -0.207 OA
ATOM      4  N   UNL     1      23.200  -8.874  20.272  1.00  0.00    -0.370 N 
ATOM      5  N   UNL     1      23.437  -6.520  20.816  1.00  0.00    -0.193 NA
ATOM      6  C   UNL     1      23.487  -7.428  18.297  1.00  0.00     0.107 A 
ATOM      7  C   UNL     1      23.155  -8.648  18.906  1.00  0.00     0.056 A 
ATOM      8  C   UNL     1      22.971  -8.282  16.105  1.00  0.00     0.095 A 
ATOM      9  C   UNL     1      22.628  -9.504  16.677  1.00  0.00     0.078 A 
ATOM     10  C   UNL     1      23.399  -7.235  16.915  1.00  0.00     0.046 A 
ATOM     11  C   UNL     1      23.749  -7.909  21.199  1.00  0.00     0.214 C 
ATOM     12  C   UNL     1      22.716  -9.681  18.061  1.00  0.00     0.041 A 
ATOM     13  H   UNL     1      22.991  -9.805  20.616  1.00  0.00     0.161 HD
ATOM     14  H   UNL     1      22.501  -6.196  21.089  1.00  0.00     0.143 HD
ENDROOT
BRANCH   8  15
ATOM     15  S   UNL     1      22.870  -8.026  14.377  1.00  0.00     0.238 S 
ATOM     16  O   UNL     1      23.730  -9.036  13.764  1.00  0.00    -0.207 OA
ATOM     17  O   UNL     1      21.443  -7.992  14.073  1.00  0.00    -0.207 OA
BRANCH  15  18
ATOM     18  N   UNL     1      23.534  -6.485  14.002  1.00  0.00    -0.225 NA
ATOM     19  H   UNL     1      24.009  -6.417  13.092  1.00  0.00     0.137 HD
ATOM     20  H   UNL     1      22.909  -5.680  14.144  1.00  0.00     0.137 HD
ENDBRANCH  15  18
ENDBRANCH   8  15
BRANCH   9  21
ATOM     21  C   UNL     1      22.159 -10.648  15.838  1.00  0.00     0.417 C 
ATOM     22  F   UNL     1      21.143 -10.320  14.988  1.00  0.00    -0.166 F 
ATOM     23  F   UNL     1      23.135 -11.176  15.043  1.00  0.00    -0.166 F 
ATOM     24  F   UNL     1      21.691 -11.688  16.587  1.00  0.00    -0.166 F 
ENDBRANCH   9  21
TORSDOF 3
ENDMDL
