MODEL 1
REMARK VINA RESULT:      -4.6      0.000      0.000
REMARK SMILES NS(=O)(=O)c1cc2c(cc1C(F)(F)F)NCNS2(=O)=O
REMARK SMILES IDX 18 1 19 2 20 3 15 4 17 5 7 6 8 7 5 8 10 9 6 10 16 11 9 12
REMARK SMILES IDX 2 15 3 16 4 17 1 18 11 21 12 22 13 23 14 24
REMARK H PARENT 15 13 17 14 1 19 1 20
ROOT
ATOM      1  S   UNL     1     -27.155   8.607 -52.906  1.00  0.00     0.244 S 
ATOM      2  O   UNL     1     -26.727   8.793 -51.534  1.00  0.00    -0.207 OA
ATOM      3  O   UNL     1     -26.691   9.471 -53.974  1.00  0.00    -0.207 OA
ATOM      4  N   UNL     1     -29.005   6.123 -52.808  1.00  0.00    -0.370 N 
ATOM      5  N   UNL     1     -28.861   8.540 -52.971  1.00  0.00    -0.193 NA
ATOM      6  C   UNL     1     -26.741   6.945 -53.333  1.00  0.00     0.107 A 
ATOM      7  C   UNL     1     -27.700   5.925 -53.230  1.00  0.00     0.056 A 
ATOM      8  C   UNL     1     -25.077   5.414 -54.162  1.00  0.00     0.095 A 
ATOM      9  C   UNL     1     -26.005   4.381 -54.079  1.00  0.00     0.078 A 
ATOM     10  C   UNL     1     -25.443   6.704 -53.792  1.00  0.00     0.046 A 
ATOM     11  C   UNL     1     -29.464   7.388 -52.277  1.00  0.00     0.214 C 
ATOM     12  C   UNL     1     -27.302   4.636 -53.622  1.00  0.00     0.041 A 
ATOM     13  H   UNL     1     -29.612   5.316 -52.717  1.00  0.00     0.161 HD
ATOM     14  H   UNL     1     -29.309   8.792 -53.861  1.00  0.00     0.143 HD
ENDROOT
BRANCH   8  15
ATOM     15  S   UNL     1     -23.447   5.129 -54.732  1.00  0.00     0.238 S 
ATOM     16  O   UNL     1     -22.820   4.248 -53.750  1.00  0.00    -0.207 OA
ATOM     17  O   UNL     1     -23.591   4.700 -56.119  1.00  0.00    -0.207 OA
BRANCH  15  18
ATOM     18  N   UNL     1     -22.584   6.617 -54.718  1.00  0.00    -0.225 NA
ATOM     19  H   UNL     1     -22.923   7.319 -54.047  1.00  0.00     0.137 HD
ATOM     20  H   UNL     1     -21.558   6.540 -54.672  1.00  0.00     0.137 HD
ENDBRANCH  15  18
ENDBRANCH   8  15
BRANCH   9  21
ATOM     21  C   UNL     1     -25.648   2.984 -54.472  1.00  0.00     0.417 C 
ATOM     22  F   UNL     1     -25.329   2.856 -55.794  1.00  0.00    -0.166 F 
ATOM     23  F   UNL     1     -24.574   2.485 -53.794  1.00  0.00    -0.166 F 
ATOM     24  F   UNL     1     -26.666   2.103 -54.253  1.00  0.00    -0.166 F 
ENDBRANCH   9  21
TORSDOF 3
ENDMDL
MODEL 2
REMARK VINA RESULT:      -4.5      2.660      3.416
REMARK SMILES NS(=O)(=O)c1cc2c(cc1C(F)(F)F)NCNS2(=O)=O
REMARK SMILES IDX 18 1 19 2 20 3 15 4 17 5 7 6 8 7 5 8 10 9 6 10 16 11 9 12
REMARK SMILES IDX 2 15 3 16 4 17 1 18 11 21 12 22 13 23 14 24
REMARK H PARENT 15 13 17 14 1 19 1 20
ROOT
ATOM      1  S   UNL     1     -29.277   7.850 -52.147  1.00  0.00     0.244 S 
ATOM      2  O   UNL     1     -29.673   8.855 -53.113  1.00  0.00    -0.207 OA
ATOM      3  O   UNL     1     -30.206   6.847 -51.664  1.00  0.00    -0.207 OA
ATOM      4  N   UNL     1     -26.276   8.421 -51.625  1.00  0.00    -0.370 N 
ATOM      5  N   UNL     1     -28.550   8.605 -50.798  1.00  0.00    -0.193 NA
ATOM      6  C   UNL     1     -27.889   7.012 -52.846  1.00  0.00     0.107 A 
ATOM      7  C   UNL     1     -26.582   7.396 -52.507  1.00  0.00     0.056 A 
ATOM      8  C   UNL     1     -27.090   5.247 -54.277  1.00  0.00     0.095 A 
ATOM      9  C   UNL     1     -25.782   5.598 -53.957  1.00  0.00     0.078 A 
ATOM     10  C   UNL     1     -28.151   5.952 -53.719  1.00  0.00     0.046 A 
ATOM     11  C   UNL     1     -27.285   9.305 -51.085  1.00  0.00     0.214 C 
ATOM     12  C   UNL     1     -25.533   6.657 -53.078  1.00  0.00     0.041 A 
ATOM     13  H   UNL     1     -25.301   8.660 -51.481  1.00  0.00     0.161 HD
ATOM     14  H   UNL     1     -28.570   8.095 -49.906  1.00  0.00     0.143 HD
ENDROOT
BRANCH   8  15
ATOM     15  S   UNL     1     -27.436   3.925 -55.369  1.00  0.00     0.238 S 
ATOM     16  O   UNL     1     -26.811   4.274 -56.643  1.00  0.00    -0.207 OA
ATOM     17  O   UNL     1     -27.030   2.718 -54.658  1.00  0.00    -0.207 OA
BRANCH  15  18
ATOM     18  N   UNL     1     -29.134   3.847 -55.631  1.00  0.00    -0.225 NA
ATOM     19  H   UNL     1     -29.598   3.001 -55.274  1.00  0.00     0.137 HD
ATOM     20  H   UNL     1     -29.667   4.688 -55.371  1.00  0.00     0.137 HD
ENDBRANCH  15  18
ENDBRANCH   8  15
BRANCH   9  21
ATOM     21  C   UNL     1     -24.617   4.859 -54.533  1.00  0.00     0.417 C 
ATOM     22  F   UNL     1     -24.583   4.877 -55.898  1.00  0.00    -0.166 F 
ATOM     23  F   UNL     1     -23.409   5.354 -54.138  1.00  0.00    -0.166 F 
ATOM     24  F   UNL     1     -24.609   3.540 -54.183  1.00  0.00    -0.166 F 
ENDBRANCH   9  21
TORSDOF 3
ENDMDL
MODEL 3
REMARK VINA RESULT:      -4.4      3.072      5.328
REMARK SMILES NS(=O)(=O)c1cc2c(cc1C(F)(F)F)NCNS2(=O)=O
REMARK SMILES IDX 18 1 19 2 20 3 15 4 17 5 7 6 8 7 5 8 10 9 6 10 16 11 9 12
REMARK SMILES IDX 2 15 3 16 4 17 1 18 11 21 12 22 13 23 14 24
REMARK H PARENT 15 13 17 14 1 19 1 20
ROOT
ATOM      1  S   UNL     1     -23.629   2.737 -55.713  1.00  0.00     0.244 S 
ATOM      2  O   UNL     1     -23.711   3.050 -57.126  1.00  0.00    -0.207 OA
ATOM      3  O   UNL     1     -22.370   2.772 -54.996  1.00  0.00    -0.207 OA
ATOM      4  N   UNL     1     -26.558   2.159 -54.880  1.00  0.00    -0.370 N 
ATOM      5  N   UNL     1     -24.379   1.232 -55.413  1.00  0.00    -0.193 NA
ATOM      6  C   UNL     1     -24.749   3.833 -54.899  1.00  0.00     0.107 A 
ATOM      7  C   UNL     1     -26.054   3.417 -54.590  1.00  0.00     0.056 A 
ATOM      8  C   UNL     1     -25.111   5.994 -53.898  1.00  0.00     0.095 A 
ATOM      9  C   UNL     1     -26.408   5.611 -53.572  1.00  0.00     0.078 A 
ATOM     10  C   UNL     1     -24.273   5.104 -54.562  1.00  0.00     0.046 A 
ATOM     11  C   UNL     1     -25.829   1.197 -55.677  1.00  0.00     0.214 C 
ATOM     12  C   UNL     1     -26.871   4.335 -53.911  1.00  0.00     0.041 A 
ATOM     13  H   UNL     1     -27.530   1.966 -54.665  1.00  0.00     0.161 HD
ATOM     14  H   UNL     1     -24.078   0.714 -54.578  1.00  0.00     0.143 HD
ENDROOT
BRANCH   8  15
ATOM     15  S   UNL     1     -24.500   7.581 -53.487  1.00  0.00     0.238 S 
ATOM     16  O   UNL     1     -25.180   8.523 -54.374  1.00  0.00    -0.207 OA
ATOM     17  O   UNL     1     -24.654   7.692 -52.040  1.00  0.00    -0.207 OA
BRANCH  15  18
ATOM     18  N   UNL     1     -22.821   7.645 -53.854  1.00  0.00    -0.225 NA
ATOM     19  H   UNL     1     -22.497   8.518 -54.294  1.00  0.00     0.137 HD
ATOM     20  H   UNL     1     -22.184   7.366 -53.095  1.00  0.00     0.137 HD
ENDBRANCH  15  18
ENDBRANCH   8  15
BRANCH   9  21
ATOM     21  C   UNL     1     -27.334   6.540 -52.856  1.00  0.00     0.417 C 
ATOM     22  F   UNL     1     -28.613   6.071 -52.765  1.00  0.00    -0.166 F 
ATOM     23  F   UNL     1     -26.956   6.802 -51.571  1.00  0.00    -0.166 F 
ATOM     24  F   UNL     1     -27.431   7.756 -53.467  1.00  0.00    -0.166 F 
ENDBRANCH   9  21
TORSDOF 3
ENDMDL
