MODEL 1
REMARK VINA RESULT:      -6.5      0.000      0.000
REMARK SMILES NS(=O)(=O)c1cc2c(cc1Cl)NCNS2(=O)=O
REMARK SMILES IDX 2 1 3 2 4 3 5 4 10 5 9 6 6 7 8 8 7 9 12 10 15 11 13 12 16 13
REMARK SMILES IDX 17 14 14 15 11 16 1 19
REMARK H PARENT 12 17 14 18 1 20 1 21
ROOT
ATOM      1  S   UNL     1      24.271  -4.795  19.817  1.00  0.00     0.239 S 
ATOM      2  O   UNL     1      23.073  -4.032  20.133  1.00  0.00    -0.207 OA
ATOM      3  O   UNL     1      25.256  -5.064  20.852  1.00  0.00    -0.207 OA
ENDROOT
BRANCH   1   4
ATOM      4  C   UNL     1      23.777  -6.322  19.115  1.00  0.00     0.102 A 
ATOM      5  C   UNL     1      23.498  -7.439  19.897  1.00  0.00     0.063 A 
ATOM      6  C   UNL     1      23.100  -8.637  19.294  1.00  0.00     0.049 A 
ATOM      7  C   UNL     1      23.662  -6.400  17.731  1.00  0.00     0.047 A 
ATOM      8  C   UNL     1      22.963  -8.745  17.900  1.00  0.00     0.057 A 
ATOM      9  C   UNL     1      23.259  -7.602  17.142  1.00  0.00     0.107 A 
ATOM     10  N   UNL     1      22.589  -9.964  17.357  1.00  0.00    -0.370 N 
ATOM     11  S   UNL     1      23.160  -7.647  15.379  1.00  0.00     0.244 S 
ATOM     12  C   UNL     1      22.311 -10.131  15.947  1.00  0.00     0.214 C 
ATOM     13  O   UNL     1      21.849  -7.137  15.032  1.00  0.00    -0.207 OA
ATOM     14  O   UNL     1      24.372  -7.056  14.849  1.00  0.00    -0.207 OA
ATOM     15  N   UNL     1      23.213  -9.331  15.098  1.00  0.00    -0.193 NA
ATOM     16  Cl  UNL     1      23.625  -7.398  21.619  1.00  0.00    -0.083 Cl
ATOM     17  H   UNL     1      22.345 -10.720  17.986  1.00  0.00     0.161 HD
ATOM     18  H   UNL     1      24.136  -9.752  14.929  1.00  0.00     0.143 HD
ENDBRANCH   1   4
BRANCH   1  19
ATOM     19  N   UNL     1      25.055  -4.069  18.484  1.00  0.00    -0.225 NA
ATOM     20  H   UNL     1      24.571  -3.297  18.009  1.00  0.00     0.137 HD
ATOM     21  H   UNL     1      26.074  -3.952  18.536  1.00  0.00     0.137 HD
ENDBRANCH   1  19
TORSDOF 2
ENDMDL
MODEL 2
REMARK VINA RESULT:      -6.4      9.497     10.218
REMARK SMILES NS(=O)(=O)c1cc2c(cc1Cl)NCNS2(=O)=O
REMARK SMILES IDX 2 1 3 2 4 3 5 4 10 5 9 6 6 7 8 8 7 9 12 10 15 11 13 12 16 13
REMARK SMILES IDX 17 14 14 15 11 16 1 19
REMARK H PARENT 12 17 14 18 1 20 1 21
ROOT
ATOM      1  S   UNL     1      17.710   0.566  16.652  1.00  0.00     0.239 S 
ATOM      2  O   UNL     1      18.275   1.892  16.851  1.00  0.00    -0.207 OA
ATOM      3  O   UNL     1      16.289   0.342  16.863  1.00  0.00    -0.207 OA
ENDROOT
BRANCH   1   4
ATOM      4  C   UNL     1      18.117   0.035  15.033  1.00  0.00     0.102 A 
ATOM      5  C   UNL     1      17.913  -1.276  14.611  1.00  0.00     0.063 A 
ATOM      6  C   UNL     1      18.246  -1.654  13.307  1.00  0.00     0.049 A 
ATOM      7  C   UNL     1      18.655   0.969  14.154  1.00  0.00     0.047 A 
ATOM      8  C   UNL     1      18.782  -0.732  12.391  1.00  0.00     0.057 A 
ATOM      9  C   UNL     1      18.980   0.578  12.851  1.00  0.00     0.107 A 
ATOM     10  N   UNL     1      19.116  -1.169  11.119  1.00  0.00    -0.370 N 
ATOM     11  S   UNL     1      19.687   1.801  11.792  1.00  0.00     0.244 S 
ATOM     12  C   UNL     1      19.559  -0.265  10.081  1.00  0.00     0.214 C 
ATOM     13  O   UNL     1      18.576   2.525  11.206  1.00  0.00    -0.207 OA
ATOM     14  O   UNL     1      20.733   2.480  12.529  1.00  0.00    -0.207 OA
ATOM     15  N   UNL     1      20.417   0.813  10.604  1.00  0.00    -0.193 NA
ATOM     16  Cl  UNL     1      17.248  -2.475  15.661  1.00  0.00    -0.083 Cl
ATOM     17  H   UNL     1      18.888  -2.122  10.859  1.00  0.00     0.161 HD
ATOM     18  H   UNL     1      21.401   0.553  10.749  1.00  0.00     0.143 HD
ENDBRANCH   1   4
BRANCH   1  19
ATOM     19  N   UNL     1      18.590  -0.559  17.587  1.00  0.00    -0.225 NA
ATOM     20  H   UNL     1      19.289  -0.190  18.245  1.00  0.00     0.137 HD
ATOM     21  H   UNL     1      18.090  -1.386  17.935  1.00  0.00     0.137 HD
ENDBRANCH   1  19
TORSDOF 2
ENDMDL
MODEL 3
REMARK VINA RESULT:      -6.2      1.652      1.827
REMARK SMILES NS(=O)(=O)c1cc2c(cc1Cl)NCNS2(=O)=O
REMARK SMILES IDX 2 1 3 2 4 3 5 4 10 5 9 6 6 7 8 8 7 9 12 10 15 11 13 12 16 13
REMARK SMILES IDX 17 14 14 15 11 16 1 19
REMARK H PARENT 12 17 14 18 1 20 1 21
ROOT
ATOM      1  S   UNL     1      24.089  -6.090  19.372  1.00  0.00     0.239 S 
ATOM      2  O   UNL     1      23.072  -6.368  20.375  1.00  0.00    -0.207 OA
ATOM      3  O   UNL     1      25.466  -5.855  19.778  1.00  0.00    -0.207 OA
ENDROOT
BRANCH   1   4
ATOM      4  C   UNL     1      24.074  -7.394  18.203  1.00  0.00     0.102 A 
ATOM      5  C   UNL     1      24.473  -8.687  18.532  1.00  0.00     0.063 A 
ATOM      6  C   UNL     1      24.438  -9.699  17.568  1.00  0.00     0.049 A 
ATOM      7  C   UNL     1      23.642  -7.110  16.912  1.00  0.00     0.047 A 
ATOM      8  C   UNL     1      23.997  -9.448  16.258  1.00  0.00     0.057 A 
ATOM      9  C   UNL     1      23.609  -8.133  15.959  1.00  0.00     0.107 A 
ATOM     10  N   UNL     1      24.007 -10.485  15.338  1.00  0.00    -0.370 N 
ATOM     11  S   UNL     1      23.080  -7.705  14.330  1.00  0.00     0.244 S 
ATOM     12  C   UNL     1      23.460 -10.344  14.006  1.00  0.00     0.214 C 
ATOM     13  O   UNL     1      21.632  -7.782  14.338  1.00  0.00    -0.207 OA
ATOM     14  O   UNL     1      23.776  -6.496  13.938  1.00  0.00    -0.207 OA
ATOM     15  N   UNL     1      23.718  -9.011  13.432  1.00  0.00    -0.193 NA
ATOM     16  Cl  UNL     1      25.017  -9.094  20.120  1.00  0.00    -0.083 Cl
ATOM     17  H   UNL     1      24.254 -11.414  15.659  1.00  0.00     0.161 HD
ATOM     18  H   UNL     1      24.653  -8.888  13.022  1.00  0.00     0.143 HD
ENDBRANCH   1   4
BRANCH   1  19
ATOM     19  N   UNL     1      23.570  -4.784  18.402  1.00  0.00    -0.225 NA
ATOM     20  H   UNL     1      23.634  -4.893  17.382  1.00  0.00     0.137 HD
ATOM     21  H   UNL     1      22.744  -4.259  18.712  1.00  0.00     0.137 HD
ENDBRANCH   1  19
TORSDOF 2
ENDMDL
