MODEL 1
REMARK VINA RESULT:      -6.8      0.000      0.000
REMARK SMILES CC(C)Cc1ccc([C@@H](C)C(=O)O)cc1
REMARK SMILES IDX 5 1 8 2 6 3 15 4 7 5 14 6 9 7 10 8 11 9 12 10 13 11 4 13
REMARK SMILES IDX 2 14 1 15 3 16
REMARK H PARENT 13 12
ROOT
ATOM      1  C   UNL     1      19.020   0.599  13.751  1.00  0.00    -0.048 A 
ATOM      2  C   UNL     1      17.458  -0.874  15.505  1.00  0.00    -0.034 A 
ATOM      3  C   UNL     1      19.227  -0.768  13.861  1.00  0.00     0.004 A 
ATOM      4  C   UNL     1      18.048   1.243  14.500  1.00  0.00     0.004 A 
ATOM      5  C   UNL     1      18.441  -1.508  14.744  1.00  0.00     0.005 A 
ATOM      6  C   UNL     1      17.262   0.501  15.383  1.00  0.00     0.005 A 
ENDROOT
BRANCH   2   7
ATOM      7  C   UNL     1      16.619  -1.666  16.450  1.00  0.00     0.126 C 
ATOM      8  C   UNL     1      16.800  -3.192  16.318  1.00  0.00     0.025 C 
BRANCH   7   9
ATOM      9  C   UNL     1      16.850  -1.282  17.915  1.00  0.00     0.310 C 
ATOM     10  O   UNL     1      16.473  -0.235  18.423  1.00  0.00    -0.252 OA
BRANCH   9  11
ATOM     11  O   UNL     1      17.537  -2.226  18.612  1.00  0.00    -0.481 OA
ATOM     12  H   UNL     1      18.486  -2.245  18.364  1.00  0.00     0.296 HD
ENDBRANCH   9  11
ENDBRANCH   7   9
ENDBRANCH   2   7
BRANCH   1  13
ATOM     13  C   UNL     1      19.869   1.401  12.795  1.00  0.00     0.038 C 
BRANCH  13  14
ATOM     14  C   UNL     1      19.240   1.576  11.400  1.00  0.00    -0.013 C 
ATOM     15  C   UNL     1      19.226   3.041  10.957  1.00  0.00     0.008 C 
ATOM     16  C   UNL     1      20.005   0.735  10.376  1.00  0.00     0.008 C 
ENDBRANCH  13  14
ENDBRANCH   1  13
TORSDOF 5
ENDMDL
MODEL 2
REMARK VINA RESULT:      -6.6      3.947      6.412
REMARK SMILES CC(C)Cc1ccc([C@@H](C)C(=O)O)cc1
REMARK SMILES IDX 5 1 8 2 6 3 15 4 7 5 14 6 9 7 10 8 11 9 12 10 13 11 4 13
REMARK SMILES IDX 2 14 1 15 3 16
REMARK H PARENT 13 12
ROOT
ATOM      1  C   UNL     1      19.363   0.909  13.333  1.00  0.00    -0.048 A 
ATOM      2  C   UNL     1      19.566  -0.255  10.825  1.00  0.00    -0.034 A 
ATOM      3  C   UNL     1      19.124  -0.450  13.193  1.00  0.00     0.004 A 
ATOM      4  C   UNL     1      19.702   1.697  12.244  1.00  0.00     0.004 A 
ATOM      5  C   UNL     1      19.226  -1.035  11.931  1.00  0.00     0.005 A 
ATOM      6  C   UNL     1      19.804   1.111  10.982  1.00  0.00     0.005 A 
ENDROOT
BRANCH   2   7
ATOM      7  C   UNL     1      19.675  -0.880   9.475  1.00  0.00     0.126 C 
ATOM      8  C   UNL     1      19.870   0.134   8.330  1.00  0.00     0.025 C 
BRANCH   7   9
ATOM      9  C   UNL     1      20.798  -1.919   9.391  1.00  0.00     0.310 C 
ATOM     10  O   UNL     1      20.867  -2.795   8.539  1.00  0.00    -0.252 OA
BRANCH   9  11
ATOM     11  O   UNL     1      21.726  -1.782  10.375  1.00  0.00    -0.481 OA
ATOM     12  H   UNL     1      21.313  -1.574  11.240  1.00  0.00     0.296 HD
ENDBRANCH   9  11
ENDBRANCH   7   9
ENDBRANCH   2   7
BRANCH   1  13
ATOM     13  C   UNL     1      19.253   1.542  14.699  1.00  0.00     0.038 C 
BRANCH  13  14
ATOM     14  C   UNL     1      18.404   0.730  15.695  1.00  0.00    -0.013 C 
ATOM     15  C   UNL     1      19.010   0.732  17.100  1.00  0.00     0.008 C 
ATOM     16  C   UNL     1      16.982   1.296  15.746  1.00  0.00     0.008 C 
ENDBRANCH  13  14
ENDBRANCH   1  13
TORSDOF 5
ENDMDL
MODEL 3
REMARK VINA RESULT:      -6.6      1.866      2.808
REMARK SMILES CC(C)Cc1ccc([C@@H](C)C(=O)O)cc1
REMARK SMILES IDX 5 1 8 2 6 3 15 4 7 5 14 6 9 7 10 8 11 9 12 10 13 11 4 13
REMARK SMILES IDX 2 14 1 15 3 16
REMARK H PARENT 13 12
ROOT
ATOM      1  C   UNL     1      19.032  -0.492  12.445  1.00  0.00    -0.048 A 
ATOM      2  C   UNL     1      18.933   0.092  15.154  1.00  0.00    -0.034 A 
ATOM      3  C   UNL     1      18.919  -1.528  13.360  1.00  0.00     0.004 A 
ATOM      4  C   UNL     1      19.095   0.830  12.858  1.00  0.00     0.004 A 
ATOM      5  C   UNL     1      18.870  -1.234  14.722  1.00  0.00     0.005 A 
ATOM      6  C   UNL     1      19.045   1.123  14.221  1.00  0.00     0.005 A 
ENDROOT
BRANCH   2   7
ATOM      7  C   UNL     1      18.881   0.406  16.610  1.00  0.00     0.126 C 
ATOM      8  C   UNL     1      19.678   1.665  17.007  1.00  0.00     0.025 C 
BRANCH   7   9
ATOM      9  C   UNL     1      17.450   0.561  17.134  1.00  0.00     0.310 C 
ATOM     10  O   UNL     1      16.465   0.707  16.422  1.00  0.00    -0.252 OA
BRANCH   9  11
ATOM     11  O   UNL     1      17.372   0.532  18.491  1.00  0.00    -0.481 OA
ATOM     12  H   UNL     1      18.246   0.358  18.903  1.00  0.00     0.296 HD
ENDBRANCH   9  11
ENDBRANCH   7   9
ENDBRANCH   2   7
BRANCH   1  13
ATOM     13  C   UNL     1      19.084  -0.809  10.970  1.00  0.00     0.038 C 
BRANCH  13  14
ATOM     14  C   UNL     1      20.384  -0.353  10.281  1.00  0.00    -0.013 C 
ATOM     15  C   UNL     1      21.309  -1.531   9.963  1.00  0.00     0.008 C 
ATOM     16  C   UNL     1      20.051   0.403   8.993  1.00  0.00     0.008 C 
ENDBRANCH  13  14
ENDBRANCH   1  13
TORSDOF 5
ENDMDL
