MODEL 1
REMARK VINA RESULT:      -5.8      0.000      0.000
REMARK SMILES NC[C@H]1O[C@H](O[C@H]2[C@H](O)[C@@H](O[C@H]3O[C@H](CO)[C@@H](O)[C@H](N)[C@H]3O)[C@H](N)C[C@@H]2N)[C@H](O)[C@@H](O)[C@@H]1O
REMARK SMILES IDX 10 1 7 2 8 3 23 4 26 5 25 6 11 7 12 8 13 9 21 10 14 11 19 12
REMARK SMILES IDX 17 13 22 14 15 16 16 17 20 19 18 22 9 24 24 26 6 29 5 30
REMARK SMILES IDX 4 31 28 32 3 33 30 34 32 35 29 36 2 38 1 39 31 42 33 44
REMARK SMILES IDX 27 46
REMARK H PARENT 22 15 16 18 20 20 20 21 18 23 9 25 24 27 24 28 29 37 1 40 1 41
REMARK H PARENT 31 43 33 45 27 47 27 48
ROOT
ATOM      1  C   UNL     1      17.558   2.991   0.999  1.00  0.00     0.169 C 
ATOM      2  C   UNL     1      17.122   1.119   2.674  1.00  0.00     0.169 C 
ATOM      3  C   UNL     1      18.117   2.170   2.167  1.00  0.00     0.175 C 
ATOM      4  C   UNL     1      17.019   2.093  -0.122  1.00  0.00     0.084 C 
ATOM      5  C   UNL     1      16.587   0.237   1.537  1.00  0.00     0.084 C 
ATOM      6  C   UNL     1      15.994   1.087   0.411  1.00  0.00     0.043 C 
ENDROOT
BRANCH   1   7
ATOM      7  O   UNL     1      18.613   3.793   0.461  1.00  0.00    -0.342 OA
BRANCH   7   8
ATOM      8  C   UNL     1      18.425   5.171   0.775  1.00  0.00     0.281 C 
ATOM      9  O   UNL     1      19.192   5.575   1.911  1.00  0.00    -0.341 OA
ATOM     10  C   UNL     1      18.778   6.045  -0.430  1.00  0.00     0.190 C 
ATOM     11  C   UNL     1      20.604   5.438   1.721  1.00  0.00     0.177 C 
ATOM     12  C   UNL     1      20.280   5.975  -0.734  1.00  0.00     0.116 C 
ATOM     13  C   UNL     1      21.088   6.290   0.536  1.00  0.00     0.165 C 
BRANCH  10  14
ATOM     14  O   UNL     1      18.011   5.608  -1.546  1.00  0.00    -0.386 OA
ATOM     15  H   UNL     1      17.800   6.395  -2.077  1.00  0.00     0.211 HD
ENDBRANCH  10  14
BRANCH  11  16
ATOM     16  C   UNL     1      21.271   5.847   3.032  1.00  0.00     0.191 C 
BRANCH  16  17
ATOM     17  O   UNL     1      21.699   7.192   2.919  1.00  0.00    -0.394 OA
ATOM     18  H   UNL     1      22.089   7.443   3.773  1.00  0.00     0.210 HD
ENDBRANCH  16  17
ENDBRANCH  11  16
BRANCH  12  19
ATOM     19  N   UNL     1      20.646   6.923  -1.793  1.00  0.00    -0.323 NA
ATOM     20  H   UNL     1      19.890   6.980  -2.473  1.00  0.00     0.119 HD
ATOM     21  H   UNL     1      21.462   6.576  -2.294  1.00  0.00     0.119 HD
ENDBRANCH  12  19
BRANCH  13  22
ATOM     22  O   UNL     1      22.464   6.022   0.280  1.00  0.00    -0.389 OA
ATOM     23  H   UNL     1      22.883   6.852  -0.005  1.00  0.00     0.211 HD
ENDBRANCH  13  22
ENDBRANCH   7   8
ENDBRANCH   1   7
BRANCH   3  24
ATOM     24  O   UNL     1      18.408   3.048   3.257  1.00  0.00    -0.388 OA
ATOM     25  H   UNL     1      18.927   3.796   2.913  1.00  0.00     0.211 HD
ENDBRANCH   3  24
BRANCH   4  26
ATOM     26  N   UNL     1      16.391   2.912  -1.163  1.00  0.00    -0.325 NA
ATOM     27  H   UNL     1      17.078   3.554  -1.554  1.00  0.00     0.119 HD
ATOM     28  H   UNL     1      15.667   3.493  -0.742  1.00  0.00     0.119 HD
ENDBRANCH   4  26
BRANCH   2  29
ATOM     29  O   UNL     1      17.785   0.299   3.640  1.00  0.00    -0.342 OA
BRANCH  29  30
ATOM     30  C   UNL     1      17.134   0.366   4.908  1.00  0.00     0.282 C 
ATOM     31  O   UNL     1      16.264  -0.745   5.128  1.00  0.00    -0.342 OA
ATOM     32  C   UNL     1      18.120   0.512   6.068  1.00  0.00     0.202 C 
ATOM     33  C   UNL     1      16.956  -1.994   5.239  1.00  0.00     0.166 C 
ATOM     34  C   UNL     1      18.896  -0.780   6.314  1.00  0.00     0.179 C 
ATOM     35  C   UNL     1      17.941  -1.970   6.416  1.00  0.00     0.176 C 
BRANCH  32  36
ATOM     36  O   UNL     1      19.035   1.571   5.808  1.00  0.00    -0.385 OA
ATOM     37  H   UNL     1      19.628   1.278   5.095  1.00  0.00     0.211 HD
ENDBRANCH  32  36
BRANCH  33  38
ATOM     38  C   UNL     1      15.895  -3.079   5.402  1.00  0.00     0.112 C 
BRANCH  38  39
ATOM     39  N   UNL     1      15.570  -3.281   6.806  1.00  0.00    -0.328 NA
ATOM     40  H   UNL     1      14.575  -3.476   6.900  1.00  0.00     0.118 HD
ATOM     41  H   UNL     1      16.058  -4.105   7.156  1.00  0.00     0.118 HD
ENDBRANCH  38  39
ENDBRANCH  33  38
BRANCH  34  42
ATOM     42  O   UNL     1      19.608  -0.670   7.549  1.00  0.00    -0.387 OA
ATOM     43  H   UNL     1      19.460   0.224   7.905  1.00  0.00     0.211 HD
ENDBRANCH  34  42
BRANCH  35  44
ATOM     44  O   UNL     1      18.721  -3.164   6.433  1.00  0.00    -0.388 OA
ATOM     45  H   UNL     1      18.213  -3.861   5.985  1.00  0.00     0.211 HD
ENDBRANCH  35  44
ENDBRANCH  29  30
ENDBRANCH   2  29
BRANCH   5  46
ATOM     46  N   UNL     1      15.559  -0.671   2.051  1.00  0.00    -0.325 NA
ATOM     47  H   UNL     1      15.912  -1.157   2.874  1.00  0.00     0.119 HD
ATOM     48  H   UNL     1      14.752  -0.132   2.362  1.00  0.00     0.119 HD
ENDBRANCH   5  46
TORSDOF 17
ENDMDL
MODEL 2
REMARK VINA RESULT:      -5.6      3.350      8.815
REMARK SMILES NC[C@H]1O[C@H](O[C@H]2[C@H](O)[C@@H](O[C@H]3O[C@H](CO)[C@@H](O)[C@H](N)[C@H]3O)[C@H](N)C[C@@H]2N)[C@H](O)[C@@H](O)[C@@H]1O
REMARK SMILES IDX 10 1 7 2 8 3 23 4 26 5 25 6 11 7 12 8 13 9 21 10 14 11 19 12
REMARK SMILES IDX 17 13 22 14 15 16 16 17 20 19 18 22 9 24 24 26 6 29 5 30
REMARK SMILES IDX 4 31 28 32 3 33 30 34 32 35 29 36 2 38 1 39 31 42 33 44
REMARK SMILES IDX 27 46
REMARK H PARENT 22 15 16 18 20 20 20 21 18 23 9 25 24 27 24 28 29 37 1 40 1 41
REMARK H PARENT 31 43 33 45 27 47 27 48
ROOT
ATOM      1  C   UNL     1      19.619  -0.750   7.133  1.00  0.00     0.169 C 
ATOM      2  C   UNL     1      19.056   0.084   4.791  1.00  0.00     0.169 C 
ATOM      3  C   UNL     1      18.980   0.364   6.297  1.00  0.00     0.175 C 
ATOM      4  C   UNL     1      19.068  -2.132   6.757  1.00  0.00     0.084 C 
ATOM      5  C   UNL     1      18.509  -1.305   4.436  1.00  0.00     0.084 C 
ATOM      6  C   UNL     1      19.201  -2.397   5.254  1.00  0.00     0.043 C 
ENDROOT
BRANCH   1   7
ATOM      7  O   UNL     1      19.322  -0.512   8.512  1.00  0.00    -0.342 OA
BRANCH   7   8
ATOM      8  C   UNL     1      20.458   0.007   9.202  1.00  0.00     0.281 C 
ATOM      9  O   UNL     1      20.237   1.333   9.684  1.00  0.00    -0.341 OA
ATOM     10  C   UNL     1      20.842  -0.914  10.361  1.00  0.00     0.190 C 
ATOM     11  C   UNL     1      19.167   1.421  10.632  1.00  0.00     0.177 C 
ATOM     12  C   UNL     1      19.759  -0.903  11.448  1.00  0.00     0.116 C 
ATOM     13  C   UNL     1      19.447   0.544  11.863  1.00  0.00     0.165 C 
BRANCH  10  14
ATOM     14  O   UNL     1      21.039  -2.227   9.851  1.00  0.00    -0.386 OA
ATOM     15  H   UNL     1      20.160  -2.600   9.665  1.00  0.00     0.211 HD
ENDBRANCH  10  14
BRANCH  11  16
ATOM     16  C   UNL     1      19.021   2.896  11.000  1.00  0.00     0.191 C 
BRANCH  16  17
ATOM     17  O   UNL     1      17.880   3.043  11.825  1.00  0.00    -0.394 OA
ATOM     18  H   UNL     1      17.747   3.996  11.965  1.00  0.00     0.210 HD
ENDBRANCH  16  17
ENDBRANCH  11  16
BRANCH  12  19
ATOM     19  N   UNL     1      20.191  -1.667  12.626  1.00  0.00    -0.323 NA
ATOM     20  H   UNL     1      20.409  -2.622  12.348  1.00  0.00     0.119 HD
ATOM     21  H   UNL     1      19.423  -1.725  13.293  1.00  0.00     0.119 HD
ENDBRANCH  12  19
BRANCH  13  22
ATOM     22  O   UNL     1      18.307   0.538  12.719  1.00  0.00    -0.389 OA
ATOM     23  H   UNL     1      17.796   1.346  12.545  1.00  0.00     0.211 HD
ENDBRANCH  13  22
ENDBRANCH   7   8
ENDBRANCH   1   7
BRANCH   3  24
ATOM     24  O   UNL     1      19.676   1.589   6.543  1.00  0.00    -0.388 OA
ATOM     25  H   UNL     1      20.604   1.375   6.740  1.00  0.00     0.211 HD
ENDBRANCH   3  24
BRANCH   4  26
ATOM     26  N   UNL     1      19.785  -3.176   7.494  1.00  0.00    -0.325 NA
ATOM     27  H   UNL     1      19.280  -4.058   7.417  1.00  0.00     0.119 HD
ATOM     28  H   UNL     1      19.797  -2.941   8.485  1.00  0.00     0.119 HD
ENDBRANCH   4  26
BRANCH   2  29
ATOM     29  O   UNL     1      18.294   1.084   4.108  1.00  0.00    -0.342 OA
BRANCH  29  30
ATOM     30  C   UNL     1      18.978   1.549   2.945  1.00  0.00     0.282 C 
ATOM     31  O   UNL     1      18.175   1.448   1.768  1.00  0.00    -0.342 OA
ATOM     32  C   UNL     1      19.513   2.973   3.107  1.00  0.00     0.202 C 
ATOM     33  C   UNL     1      17.035   2.317   1.784  1.00  0.00     0.166 C 
ATOM     34  C   UNL     1      18.387   4.003   3.097  1.00  0.00     0.179 C 
ATOM     35  C   UNL     1      17.469   3.785   1.892  1.00  0.00     0.176 C 
BRANCH  32  36
ATOM     36  O   UNL     1      20.248   3.088   4.321  1.00  0.00    -0.385 OA
ATOM     37  H   UNL     1      19.944   2.383   4.916  1.00  0.00     0.211 HD
ENDBRANCH  32  36
BRANCH  33  38
ATOM     38  C   UNL     1      16.250   2.045   0.504  1.00  0.00     0.112 C 
BRANCH  38  39
ATOM     39  N   UNL     1      14.857   2.437   0.656  1.00  0.00    -0.328 NA
ATOM     40  H   UNL     1      14.354   2.250  -0.210  1.00  0.00     0.118 HD
ATOM     41  H   UNL     1      14.415   1.864   1.374  1.00  0.00     0.118 HD
ENDBRANCH  38  39
ENDBRANCH  33  38
BRANCH  34  42
ATOM     42  O   UNL     1      18.952   5.313   2.998  1.00  0.00    -0.387 OA
ATOM     43  H   UNL     1      19.910   5.219   2.854  1.00  0.00     0.211 HD
ENDBRANCH  34  42
BRANCH  35  44
ATOM     44  O   UNL     1      16.330   4.628   2.047  1.00  0.00    -0.388 OA
ATOM     45  H   UNL     1      16.641   5.549   2.086  1.00  0.00     0.211 HD
ENDBRANCH  35  44
ENDBRANCH  29  30
ENDBRANCH   2  29
BRANCH   5  46
ATOM     46  N   UNL     1      18.707  -1.570   3.009  1.00  0.00    -0.325 NA
ATOM     47  H   UNL     1      18.186  -2.404   2.740  1.00  0.00     0.119 HD
ATOM     48  H   UNL     1      18.320  -0.802   2.462  1.00  0.00     0.119 HD
ENDBRANCH   5  46
TORSDOF 17
ENDMDL
MODEL 3
REMARK VINA RESULT:      -5.4      2.013      2.395
REMARK SMILES NC[C@H]1O[C@H](O[C@H]2[C@H](O)[C@@H](O[C@H]3O[C@H](CO)[C@@H](O)[C@H](N)[C@H]3O)[C@H](N)C[C@@H]2N)[C@H](O)[C@@H](O)[C@@H]1O
REMARK SMILES IDX 10 1 7 2 8 3 23 4 26 5 25 6 11 7 12 8 13 9 21 10 14 11 19 12
REMARK SMILES IDX 17 13 22 14 15 16 16 17 20 19 18 22 9 24 24 26 6 29 5 30
REMARK SMILES IDX 4 31 28 32 3 33 30 34 32 35 29 36 2 38 1 39 31 42 33 44
REMARK SMILES IDX 27 46
REMARK H PARENT 22 15 16 18 20 20 20 21 18 23 9 25 24 27 24 28 29 37 1 40 1 41
REMARK H PARENT 31 43 33 45 27 47 27 48
ROOT
ATOM      1  C   UNL     1      19.714   3.611   1.533  1.00  0.00     0.169 C 
ATOM      2  C   UNL     1      18.343   1.874   2.798  1.00  0.00     0.169 C 
ATOM      3  C   UNL     1      19.742   2.434   2.514  1.00  0.00     0.175 C 
ATOM      4  C   UNL     1      18.941   3.266   0.253  1.00  0.00     0.084 C 
ATOM      5  C   UNL     1      17.583   1.544   1.507  1.00  0.00     0.084 C 
ATOM      6  C   UNL     1      17.533   2.754   0.571  1.00  0.00     0.043 C 
ENDROOT
BRANCH   1   7
ATOM      7  O   UNL     1      21.059   3.932   1.169  1.00  0.00    -0.342 OA
BRANCH   7   8
ATOM      8  C   UNL     1      21.576   4.986   1.979  1.00  0.00     0.281 C 
ATOM      9  O   UNL     1      22.787   4.616   2.638  1.00  0.00    -0.341 OA
ATOM     10  C   UNL     1      21.802   6.243   1.136  1.00  0.00     0.190 C 
ATOM     11  C   UNL     1      23.852   4.301   1.735  1.00  0.00     0.177 C 
ATOM     12  C   UNL     1      22.931   6.022   0.119  1.00  0.00     0.116 C 
ATOM     13  C   UNL     1      24.188   5.502   0.836  1.00  0.00     0.165 C 
BRANCH  10  14
ATOM     14  O   UNL     1      20.584   6.575   0.481  1.00  0.00    -0.386 OA
ATOM     15  H   UNL     1      19.928   5.902   0.731  1.00  0.00     0.211 HD
ENDBRANCH  10  14
BRANCH  11  16
ATOM     16  C   UNL     1      25.044   3.871   2.586  1.00  0.00     0.191 C 
BRANCH  16  17
ATOM     17  O   UNL     1      25.849   5.008   2.842  1.00  0.00    -0.394 OA
ATOM     18  H   UNL     1      26.567   4.725   3.433  1.00  0.00     0.210 HD
ENDBRANCH  16  17
ENDBRANCH  11  16
BRANCH  12  19
ATOM     19  N   UNL     1      23.251   7.268  -0.588  1.00  0.00    -0.323 NA
ATOM     20  H   UNL     1      22.476   7.519  -1.200  1.00  0.00     0.119 HD
ATOM     21  H   UNL     1      24.060   7.120  -1.188  1.00  0.00     0.119 HD
ENDBRANCH  12  19
BRANCH  13  22
ATOM     22  O   UNL     1      25.147   5.117  -0.146  1.00  0.00    -0.389 OA
ATOM     23  H   UNL     1      24.908   4.231  -0.467  1.00  0.00     0.211 HD
ENDBRANCH  13  22
ENDBRANCH   7   8
ENDBRANCH   1   7
BRANCH   3  24
ATOM     24  O   UNL     1      20.289   2.879   3.759  1.00  0.00    -0.388 OA
ATOM     25  H   UNL     1      19.641   2.688   4.460  1.00  0.00     0.211 HD
ENDBRANCH   3  24
BRANCH   4  26
ATOM     26  N   UNL     1      18.838   4.450  -0.606  1.00  0.00    -0.325 NA
ATOM     27  H   UNL     1      18.671   4.161  -1.568  1.00  0.00     0.119 HD
ATOM     28  H   UNL     1      19.730   4.942  -0.608  1.00  0.00     0.119 HD
ENDBRANCH   4  26
BRANCH   2  29
ATOM     29  O   UNL     1      18.484   0.687   3.584  1.00  0.00    -0.342 OA
BRANCH  29  30
ATOM     30  C   UNL     1      17.654   0.734   4.744  1.00  0.00     0.282 C 
ATOM     31  O   UNL     1      16.537  -0.150   4.646  1.00  0.00    -0.342 OA
ATOM     32  C   UNL     1      18.433   0.472   6.034  1.00  0.00     0.202 C 
ATOM     33  C   UNL     1      16.909  -1.534   4.629  1.00  0.00     0.166 C 
ATOM     34  C   UNL     1      18.852  -0.991   6.153  1.00  0.00     0.179 C 
ATOM     35  C   UNL     1      17.657  -1.915   5.914  1.00  0.00     0.176 C 
BRANCH  32  36
ATOM     36  O   UNL     1      19.589   1.301   6.090  1.00  0.00    -0.385 OA
ATOM     37  H   UNL     1      20.069   1.192   5.252  1.00  0.00     0.211 HD
ENDBRANCH  32  36
BRANCH  33  38
ATOM     38  C   UNL     1      15.624  -2.339   4.454  1.00  0.00     0.112 C 
BRANCH  38  39
ATOM     39  N   UNL     1      15.291  -3.056   5.675  1.00  0.00    -0.328 NA
ATOM     40  H   UNL     1      14.728  -3.874   5.446  1.00  0.00     0.118 HD
ATOM     41  H   UNL     1      16.143  -3.407   6.111  1.00  0.00     0.118 HD
ENDBRANCH  38  39
ENDBRANCH  33  38
BRANCH  34  42
ATOM     42  O   UNL     1      19.347  -1.230   7.473  1.00  0.00    -0.387 OA
ATOM     43  H   UNL     1      19.284  -2.185   7.651  1.00  0.00     0.211 HD
ENDBRANCH  34  42
BRANCH  35  44
ATOM     44  O   UNL     1      18.142  -3.253   5.827  1.00  0.00    -0.388 OA
ATOM     45  H   UNL     1      17.501  -3.834   6.271  1.00  0.00     0.211 HD
ENDBRANCH  35  44
ENDBRANCH  29  30
ENDBRANCH   2  29
BRANCH   5  46
ATOM     46  N   UNL     1      16.216   1.122   1.826  1.00  0.00    -0.325 NA
ATOM     47  H   UNL     1      15.853   0.541   1.071  1.00  0.00     0.119 HD
ATOM     48  H   UNL     1      16.226   0.536   2.659  1.00  0.00     0.119 HD
ENDBRANCH   5  46
TORSDOF 17
ENDMDL
