MODEL 1
REMARK VINA RESULT:      -4.9      0.000      0.000
REMARK SMILES NC[C@H]1O[C@H](O[C@H]2[C@H](O)[C@@H](O[C@H]3O[C@H](CO)[C@@H](O)[C@H](N)[C@H]3O)[C@H](N)C[C@@H]2N)[C@H](O)[C@@H](O)[C@@H]1O
REMARK SMILES IDX 10 1 7 2 8 3 23 4 26 5 25 6 11 7 12 8 13 9 21 10 14 11 19 12
REMARK SMILES IDX 17 13 22 14 15 16 16 17 20 19 18 22 9 24 24 26 6 29 5 30
REMARK SMILES IDX 4 31 28 32 3 33 30 34 32 35 29 36 2 38 1 39 31 42 33 44
REMARK SMILES IDX 27 46
REMARK H PARENT 22 15 16 18 20 20 20 21 18 23 9 25 24 27 24 28 29 37 1 40 1 41
REMARK H PARENT 31 43 33 45 27 47 27 48
ROOT
ATOM      1  C   UNL     1     -26.799   6.011 -55.647  1.00  0.00     0.169 C 
ATOM      2  C   UNL     1     -26.759   7.753 -53.787  1.00  0.00     0.169 C 
ATOM      3  C   UNL     1     -26.468   6.300 -54.179  1.00  0.00     0.175 C 
ATOM      4  C   UNL     1     -28.225   6.448 -56.006  1.00  0.00     0.084 C 
ATOM      5  C   UNL     1     -28.185   8.175 -54.162  1.00  0.00     0.084 C 
ATOM      6  C   UNL     1     -28.467   7.917 -55.644  1.00  0.00     0.043 C 
ENDROOT
BRANCH   1   7
ATOM      7  O   UNL     1     -26.696   4.601 -55.868  1.00  0.00    -0.342 OA
BRANCH   7   8
ATOM      8  C   UNL     1     -25.806   4.311 -56.945  1.00  0.00     0.281 C 
ATOM      9  O   UNL     1     -24.452   4.185 -56.507  1.00  0.00    -0.341 OA
ATOM     10  C   UNL     1     -26.243   3.036 -57.668  1.00  0.00     0.190 C 
ATOM     11  C   UNL     1     -24.254   3.114 -55.577  1.00  0.00     0.177 C 
ATOM     12  C   UNL     1     -26.077   1.810 -56.759  1.00  0.00     0.116 C 
ATOM     13  C   UNL     1     -24.646   1.764 -56.198  1.00  0.00     0.165 C 
BRANCH  10  14
ATOM     14  O   UNL     1     -27.597   3.188 -58.076  1.00  0.00    -0.386 OA
ATOM     15  H   UNL     1     -27.594   3.344 -59.036  1.00  0.00     0.211 HD
ENDBRANCH  10  14
BRANCH  11  16
ATOM     16  C   UNL     1     -22.785   3.151 -55.165  1.00  0.00     0.191 C 
BRANCH  16  17
ATOM     17  O   UNL     1     -22.651   2.499 -53.915  1.00  0.00    -0.394 OA
ATOM     18  H   UNL     1     -23.201   2.984 -53.277  1.00  0.00     0.210 HD
ENDBRANCH  16  17
ENDBRANCH  11  16
BRANCH  12  19
ATOM     19  N   UNL     1     -26.353   0.571 -57.496  1.00  0.00    -0.323 NA
ATOM     20  H   UNL     1     -25.477   0.087 -57.686  1.00  0.00     0.119 HD
ATOM     21  H   UNL     1     -26.763   0.798 -58.401  1.00  0.00     0.119 HD
ENDBRANCH  12  19
BRANCH  13  22
ATOM     22  O   UNL     1     -24.577   0.740 -55.209  1.00  0.00    -0.389 OA
ATOM     23  H   UNL     1     -24.674   1.158 -54.337  1.00  0.00     0.211 HD
ENDBRANCH  13  22
ENDBRANCH   7   8
ENDBRANCH   1   7
BRANCH   3  24
ATOM     24  O   UNL     1     -25.074   6.066 -53.961  1.00  0.00    -0.388 OA
ATOM     25  H   UNL     1     -24.799   6.576 -53.179  1.00  0.00     0.211 HD
ENDBRANCH   3  24
BRANCH   4  26
ATOM     26  N   UNL     1     -28.461   6.263 -57.441  1.00  0.00    -0.325 NA
ATOM     27  H   UNL     1     -28.126   7.079 -57.950  1.00  0.00     0.119 HD
ATOM     28  H   UNL     1     -29.464   6.213 -57.613  1.00  0.00     0.119 HD
ENDBRANCH   4  26
BRANCH   2  29
ATOM     29  O   UNL     1     -26.580   7.883 -52.374  1.00  0.00    -0.342 OA
BRANCH  29  30
ATOM     30  C   UNL     1     -25.893   9.091 -52.050  1.00  0.00     0.282 C 
ATOM     31  O   UNL     1     -26.732  10.024 -51.367  1.00  0.00    -0.342 OA
ATOM     32  C   UNL     1     -24.611   8.842 -51.252  1.00  0.00     0.202 C 
ATOM     33  C   UNL     1     -27.136   9.579 -50.067  1.00  0.00     0.166 C 
ATOM     34  C   UNL     1     -24.913   8.399 -49.823  1.00  0.00     0.179 C 
ATOM     35  C   UNL     1     -25.915   9.349 -49.165  1.00  0.00     0.176 C 
BRANCH  32  36
ATOM     36  O   UNL     1     -23.814   7.853 -51.896  1.00  0.00    -0.385 OA
ATOM     37  H   UNL     1     -23.441   7.282 -51.205  1.00  0.00     0.211 HD
ENDBRANCH  32  36
BRANCH  33  38
ATOM     38  C   UNL     1     -28.073  10.643 -49.502  1.00  0.00     0.112 C 
BRANCH  38  39
ATOM     39  N   UNL     1     -29.026  10.056 -48.573  1.00  0.00    -0.328 NA
ATOM     40  H   UNL     1     -29.855   9.754 -49.082  1.00  0.00     0.118 HD
ATOM     41  H   UNL     1     -28.625   9.217 -48.154  1.00  0.00     0.118 HD
ENDBRANCH  38  39
ENDBRANCH  33  38
BRANCH  34  42
ATOM     42  O   UNL     1     -23.703   8.425 -49.060  1.00  0.00    -0.387 OA
ATOM     43  H   UNL     1     -22.956   8.476 -49.680  1.00  0.00     0.211 HD
ENDBRANCH  34  42
BRANCH  35  44
ATOM     44  O   UNL     1     -26.318   8.775 -47.923  1.00  0.00    -0.388 OA
ATOM     45  H   UNL     1     -26.615   9.496 -47.342  1.00  0.00     0.211 HD
ENDBRANCH  35  44
ENDBRANCH  29  30
ENDBRANCH   2  29
BRANCH   5  46
ATOM     46  N   UNL     1     -28.378   9.599 -53.873  1.00  0.00    -0.325 NA
ATOM     47  H   UNL     1     -29.280   9.903 -54.238  1.00  0.00     0.119 HD
ATOM     48  H   UNL     1     -28.414   9.740 -52.865  1.00  0.00     0.119 HD
ENDBRANCH   5  46
TORSDOF 17
ENDMDL
MODEL 2
REMARK VINA RESULT:      -4.7      2.175      2.906
REMARK SMILES NC[C@H]1O[C@H](O[C@H]2[C@H](O)[C@@H](O[C@H]3O[C@H](CO)[C@@H](O)[C@H](N)[C@H]3O)[C@H](N)C[C@@H]2N)[C@H](O)[C@@H](O)[C@@H]1O
REMARK SMILES IDX 10 1 7 2 8 3 23 4 26 5 25 6 11 7 12 8 13 9 21 10 14 11 19 12
REMARK SMILES IDX 17 13 22 14 15 16 16 17 20 19 18 22 9 24 24 26 6 29 5 30
REMARK SMILES IDX 4 31 28 32 3 33 30 34 32 35 29 36 2 38 1 39 31 42 33 44
REMARK SMILES IDX 27 46
REMARK H PARENT 22 15 16 18 20 20 20 21 18 23 9 25 24 27 24 28 29 37 1 40 1 41
REMARK H PARENT 31 43 33 45 27 47 27 48
ROOT
ATOM      1  C   UNL     1     -26.755   6.597 -54.359  1.00  0.00     0.169 C 
ATOM      2  C   UNL     1     -27.271   7.968 -52.273  1.00  0.00     0.169 C 
ATOM      3  C   UNL     1     -26.179   7.361 -53.162  1.00  0.00     0.175 C 
ATOM      4  C   UNL     1     -27.807   5.567 -53.924  1.00  0.00     0.084 C 
ATOM      5  C   UNL     1     -28.318   6.926 -51.856  1.00  0.00     0.084 C 
ATOM      6  C   UNL     1     -28.906   6.215 -53.077  1.00  0.00     0.043 C 
ENDROOT
BRANCH   1   7
ATOM      7  O   UNL     1     -25.689   5.898 -55.008  1.00  0.00    -0.342 OA
BRANCH   7   8
ATOM      8  C   UNL     1     -25.024   5.017 -54.106  1.00  0.00     0.281 C 
ATOM      9  O   UNL     1     -25.462   3.665 -54.250  1.00  0.00    -0.341 OA
ATOM     10  C   UNL     1     -23.509   5.099 -54.301  1.00  0.00     0.190 C 
ATOM     11  C   UNL     1     -25.199   3.118 -55.547  1.00  0.00     0.177 C 
ATOM     12  C   UNL     1     -23.104   4.538 -55.672  1.00  0.00     0.116 C 
ATOM     13  C   UNL     1     -23.694   3.130 -55.856  1.00  0.00     0.165 C 
BRANCH  10  14
ATOM     14  O   UNL     1     -23.107   6.457 -54.167  1.00  0.00    -0.386 OA
ATOM     15  H   UNL     1     -23.917   6.995 -54.125  1.00  0.00     0.211 HD
ENDBRANCH  10  14
BRANCH  11  16
ATOM     16  C   UNL     1     -25.776   1.705 -55.558  1.00  0.00     0.191 C 
BRANCH  16  17
ATOM     17  O   UNL     1     -24.715   0.784 -55.381  1.00  0.00    -0.394 OA
ATOM     18  H   UNL     1     -24.784   0.126 -56.093  1.00  0.00     0.210 HD
ENDBRANCH  16  17
ENDBRANCH  11  16
BRANCH  12  19
ATOM     19  N   UNL     1     -21.644   4.478 -55.803  1.00  0.00    -0.323 NA
ATOM     20  H   UNL     1     -21.335   5.174 -56.480  1.00  0.00     0.119 HD
ATOM     21  H   UNL     1     -21.373   3.570 -56.175  1.00  0.00     0.119 HD
ENDBRANCH  12  19
BRANCH  13  22
ATOM     22  O   UNL     1     -23.475   2.717 -57.203  1.00  0.00    -0.389 OA
ATOM     23  H   UNL     1     -23.084   3.465 -57.686  1.00  0.00     0.211 HD
ENDBRANCH  13  22
ENDBRANCH   7   8
ENDBRANCH   1   7
BRANCH   3  24
ATOM     24  O   UNL     1     -25.368   8.437 -53.643  1.00  0.00    -0.388 OA
ATOM     25  H   UNL     1     -25.580   8.579 -54.582  1.00  0.00     0.211 HD
ENDBRANCH   3  24
BRANCH   4  26
ATOM     26  N   UNL     1     -28.414   4.943 -55.103  1.00  0.00    -0.325 NA
ATOM     27  H   UNL     1     -27.688   4.704 -55.776  1.00  0.00     0.119 HD
ATOM     28  H   UNL     1     -29.021   5.618 -55.566  1.00  0.00     0.119 HD
ENDBRANCH   4  26
BRANCH   2  29
ATOM     29  O   UNL     1     -26.651   8.512 -51.105  1.00  0.00    -0.342 OA
BRANCH  29  30
ATOM     30  C   UNL     1     -26.758   9.935 -51.078  1.00  0.00     0.282 C 
ATOM     31  O   UNL     1     -27.945  10.375 -50.415  1.00  0.00    -0.342 OA
ATOM     32  C   UNL     1     -25.525  10.606 -50.471  1.00  0.00     0.202 C 
ATOM     33  C   UNL     1     -27.958  10.071 -49.015  1.00  0.00     0.166 C 
ATOM     34  C   UNL     1     -25.450  10.388 -48.962  1.00  0.00     0.179 C 
ATOM     35  C   UNL     1     -26.781  10.747 -48.299  1.00  0.00     0.176 C 
BRANCH  32  36
ATOM     36  O   UNL     1     -24.340  10.106 -51.081  1.00  0.00    -0.385 OA
ATOM     37  H   UNL     1     -24.062   9.320 -50.582  1.00  0.00     0.211 HD
ENDBRANCH  32  36
BRANCH  33  38
ATOM     38  C   UNL     1     -29.305  10.539 -48.470  1.00  0.00     0.112 C 
BRANCH  38  39
ATOM     39  N   UNL     1     -30.107   9.409 -48.029  1.00  0.00    -0.328 NA
ATOM     40  H   UNL     1     -29.809   8.568 -48.521  1.00  0.00     0.118 HD
ATOM     41  H   UNL     1     -29.942   9.236 -47.039  1.00  0.00     0.118 HD
ENDBRANCH  38  39
ENDBRANCH  33  38
BRANCH  34  42
ATOM     42  O   UNL     1     -24.434  11.234 -48.417  1.00  0.00    -0.387 OA
ATOM     43  H   UNL     1     -23.698  10.671 -48.120  1.00  0.00     0.211 HD
ENDBRANCH  34  42
BRANCH  35  44
ATOM     44  O   UNL     1     -26.723  10.327 -46.937  1.00  0.00    -0.388 OA
ATOM     45  H   UNL     1     -26.609  11.119 -46.383  1.00  0.00     0.211 HD
ENDBRANCH  35  44
ENDBRANCH  29  30
ENDBRANCH   2  29
BRANCH   5  46
ATOM     46  N   UNL     1     -29.397   7.575 -51.107  1.00  0.00    -0.325 NA
ATOM     47  H   UNL     1     -30.028   6.866 -50.734  1.00  0.00     0.119 HD
ATOM     48  H   UNL     1     -29.008   8.062 -50.302  1.00  0.00     0.119 HD
ENDBRANCH   5  46
TORSDOF 17
ENDMDL
MODEL 3
REMARK VINA RESULT:      -4.7      1.956      2.195
REMARK SMILES NC[C@H]1O[C@H](O[C@H]2[C@H](O)[C@@H](O[C@H]3O[C@H](CO)[C@@H](O)[C@H](N)[C@H]3O)[C@H](N)C[C@@H]2N)[C@H](O)[C@@H](O)[C@@H]1O
REMARK SMILES IDX 10 1 7 2 8 3 23 4 26 5 25 6 11 7 12 8 13 9 21 10 14 11 19 12
REMARK SMILES IDX 17 13 22 14 15 16 16 17 20 19 18 22 9 24 24 26 6 29 5 30
REMARK SMILES IDX 4 31 28 32 3 33 30 34 32 35 29 36 2 38 1 39 31 42 33 44
REMARK SMILES IDX 27 46
REMARK H PARENT 22 15 16 18 20 20 20 21 18 23 9 25 24 27 24 28 29 37 1 40 1 41
REMARK H PARENT 31 43 33 45 27 47 27 48
ROOT
ATOM      1  C   UNL     1     -26.628   5.848 -53.805  1.00  0.00     0.169 C 
ATOM      2  C   UNL     1     -26.741   7.812 -52.185  1.00  0.00     0.169 C 
ATOM      3  C   UNL     1     -25.884   6.672 -52.748  1.00  0.00     0.175 C 
ATOM      4  C   UNL     1     -27.994   5.369 -53.296  1.00  0.00     0.084 C 
ATOM      5  C   UNL     1     -28.106   7.316 -51.689  1.00  0.00     0.084 C 
ATOM      6  C   UNL     1     -28.841   6.538 -52.783  1.00  0.00     0.043 C 
ENDROOT
BRANCH   1   7
ATOM      7  O   UNL     1     -25.840   4.696 -54.120  1.00  0.00    -0.342 OA
BRANCH   7   8
ATOM      8  C   UNL     1     -25.541   4.642 -55.514  1.00  0.00     0.281 C 
ATOM      9  O   UNL     1     -24.296   5.270 -55.823  1.00  0.00    -0.341 OA
ATOM     10  C   UNL     1     -25.529   3.191 -55.999  1.00  0.00     0.190 C 
ATOM     11  C   UNL     1     -23.173   4.648 -55.188  1.00  0.00     0.177 C 
ATOM     12  C   UNL     1     -24.359   2.417 -55.377  1.00  0.00     0.116 C 
ATOM     13  C   UNL     1     -23.043   3.177 -55.614  1.00  0.00     0.165 C 
BRANCH  10  14
ATOM     14  O   UNL     1     -26.774   2.591 -55.663  1.00  0.00    -0.386 OA
ATOM     15  H   UNL     1     -27.263   2.455 -56.493  1.00  0.00     0.211 HD
ENDBRANCH  10  14
BRANCH  11  16
ATOM     16  C   UNL     1     -21.940   5.465 -55.566  1.00  0.00     0.191 C 
BRANCH  16  17
ATOM     17  O   UNL     1     -20.854   5.039 -54.764  1.00  0.00    -0.394 OA
ATOM     18  H   UNL     1     -20.255   4.531 -55.337  1.00  0.00     0.210 HD
ENDBRANCH  16  17
ENDBRANCH  11  16
BRANCH  12  19
ATOM     19  N   UNL     1     -24.257   1.071 -55.953  1.00  0.00    -0.323 NA
ATOM     20  H   UNL     1     -24.064   1.143 -56.951  1.00  0.00     0.119 HD
ATOM     21  H   UNL     1     -25.152   0.593 -55.863  1.00  0.00     0.119 HD
ENDBRANCH  12  19
BRANCH  13  22
ATOM     22  O   UNL     1     -22.011   2.546 -54.859  1.00  0.00    -0.389 OA
ATOM     23  H   UNL     1     -21.955   2.990 -53.996  1.00  0.00     0.211 HD
ENDBRANCH  13  22
ENDBRANCH   7   8
ENDBRANCH   1   7
BRANCH   3  24
ATOM     24  O   UNL     1     -24.725   7.259 -53.346  1.00  0.00    -0.388 OA
ATOM     25  H   UNL     1     -24.257   7.769 -52.662  1.00  0.00     0.211 HD
ENDBRANCH   3  24
BRANCH   4  26
ATOM     26  N   UNL     1     -28.719   4.687 -54.372  1.00  0.00    -0.325 NA
ATOM     27  H   UNL     1     -29.071   3.792 -54.033  1.00  0.00     0.119 HD
ATOM     28  H   UNL     1     -28.072   4.470 -55.128  1.00  0.00     0.119 HD
ENDBRANCH   4  26
BRANCH   2  29
ATOM     29  O   UNL     1     -26.031   8.415 -51.098  1.00  0.00    -0.342 OA
BRANCH  29  30
ATOM     30  C   UNL     1     -25.640   9.750 -51.415  1.00  0.00     0.282 C 
ATOM     31  O   UNL     1     -26.635  10.707 -51.046  1.00  0.00    -0.342 OA
ATOM     32  C   UNL     1     -24.286  10.125 -50.808  1.00  0.00     0.202 C 
ATOM     33  C   UNL     1     -26.831  10.804 -49.630  1.00  0.00     0.166 C 
ATOM     34  C   UNL     1     -24.376  10.300 -49.295  1.00  0.00     0.179 C 
ATOM     35  C   UNL     1     -25.534  11.230 -48.927  1.00  0.00     0.176 C 
BRANCH  32  36
ATOM     36  O   UNL     1     -23.317   9.129 -51.113  1.00  0.00    -0.385 OA
ATOM     37  H   UNL     1     -23.792   8.297 -51.275  1.00  0.00     0.211 HD
ENDBRANCH  32  36
BRANCH  33  38
ATOM     38  C   UNL     1     -27.959  11.806 -49.403  1.00  0.00     0.112 C 
BRANCH  38  39
ATOM     39  N   UNL     1     -29.070  11.550 -50.308  1.00  0.00    -0.328 NA
ATOM     40  H   UNL     1     -29.759  12.295 -50.219  1.00  0.00     0.118 HD
ATOM     41  H   UNL     1     -28.741  11.577 -51.272  1.00  0.00     0.118 HD
ENDBRANCH  38  39
ENDBRANCH  33  38
BRANCH  34  42
ATOM     42  O   UNL     1     -23.161  10.888 -48.820  1.00  0.00    -0.387 OA
ATOM     43  H   UNL     1     -23.380  11.740 -48.404  1.00  0.00     0.211 HD
ENDBRANCH  34  42
BRANCH  35  44
ATOM     44  O   UNL     1     -25.701  11.189 -47.512  1.00  0.00    -0.388 OA
ATOM     45  H   UNL     1     -24.818  11.177 -47.105  1.00  0.00     0.211 HD
ENDBRANCH  35  44
ENDBRANCH  29  30
ENDBRANCH   2  29
BRANCH   5  46
ATOM     46  N   UNL     1     -28.928   8.453 -51.268  1.00  0.00    -0.325 NA
ATOM     47  H   UNL     1     -28.361   9.102 -50.724  1.00  0.00     0.119 HD
ATOM     48  H   UNL     1     -29.244   8.968 -52.088  1.00  0.00     0.119 HD
ENDBRANCH   5  46
TORSDOF 17
ENDMDL
