MODEL 1
REMARK VINA RESULT:      -4.0      0.000      0.000
REMARK SMILES NC(N)=NCCC[C@H](N)C(=O)O
REMARK SMILES IDX 7 1 8 2 10 3 11 4 12 5 9 7 6 10 5 11 4 12 2 13 1 14 3 15
REMARK H PARENT 12 6 9 8 9 9 1 16 1 17 3 18 3 19
ROOT
ATOM      1  C   UNL     1     -31.553   6.775 -43.148  1.00  0.00     0.032 C 
ENDROOT
BRANCH   1   2
ATOM      2  C   UNL     1     -32.265   5.591 -43.822  1.00  0.00     0.162 C 
BRANCH   2   3
ATOM      3  C   UNL     1     -31.306   4.709 -44.601  1.00  0.00     0.320 C 
ATOM      4  O   UNL     1     -30.108   4.599 -44.372  1.00  0.00    -0.251 OA
BRANCH   3   5
ATOM      5  O   UNL     1     -31.935   4.015 -45.586  1.00  0.00    -0.480 OA
ATOM      6  H   UNL     1     -32.511   4.595 -46.129  1.00  0.00     0.296 HD
ENDBRANCH   3   5
ENDBRANCH   2   3
BRANCH   2   7
ATOM      7  N   UNL     1     -32.869   4.732 -42.807  1.00  0.00    -0.318 NA
ATOM      8  H   UNL     1     -33.365   3.964 -43.257  1.00  0.00     0.119 HD
ATOM      9  H   UNL     1     -33.573   5.257 -42.288  1.00  0.00     0.119 HD
ENDBRANCH   2   7
ENDBRANCH   1   2
BRANCH   1  10
ATOM     10  C   UNL     1     -32.174   8.124 -43.540  1.00  0.00     0.026 C 
BRANCH  10  11
ATOM     11  C   UNL     1     -32.560   8.180 -45.015  1.00  0.00     0.146 C 
BRANCH  11  12
ATOM     12  N   UNL     1     -31.358   8.323 -45.839  1.00  0.00    -0.254 NA
ATOM     13  C   UNL     1     -31.350   9.299 -46.692  1.00  0.00     0.185 C 
ATOM     14  N   UNL     1     -30.258   9.501 -47.505  1.00  0.00    -0.370 N 
ATOM     15  N   UNL     1     -32.339  10.229 -46.924  1.00  0.00    -0.370 N 
ATOM     16  H   UNL     1     -29.447   8.895 -47.451  1.00  0.00     0.159 HD
ATOM     17  H   UNL     1     -30.231  10.259 -48.178  1.00  0.00     0.159 HD
ATOM     18  H   UNL     1     -32.220  10.954 -47.622  1.00  0.00     0.159 HD
ATOM     19  H   UNL     1     -33.215  10.226 -46.414  1.00  0.00     0.159 HD
ENDBRANCH  11  12
ENDBRANCH  10  11
ENDBRANCH   1  10
TORSDOF 7
ENDMDL
MODEL 2
REMARK VINA RESULT:      -3.8     18.638     19.428
REMARK SMILES NC(N)=NCCC[C@H](N)C(=O)O
REMARK SMILES IDX 7 1 8 2 10 3 11 4 12 5 9 7 6 10 5 11 4 12 2 13 1 14 3 15
REMARK H PARENT 12 6 9 8 9 9 1 16 1 17 3 18 3 19
ROOT
ATOM      1  C   UNL     1     -13.366   6.953 -38.234  1.00  0.00     0.032 C 
ENDROOT
BRANCH   1   2
ATOM      2  C   UNL     1     -14.840   6.617 -38.504  1.00  0.00     0.162 C 
BRANCH   2   3
ATOM      3  C   UNL     1     -15.335   7.203 -39.814  1.00  0.00     0.320 C 
ATOM      4  O   UNL     1     -15.771   8.339 -39.956  1.00  0.00    -0.251 OA
BRANCH   3   5
ATOM      5  O   UNL     1     -15.217   6.325 -40.845  1.00  0.00    -0.480 OA
ATOM      6  H   UNL     1     -14.412   5.771 -40.762  1.00  0.00     0.296 HD
ENDBRANCH   3   5
ENDBRANCH   2   3
BRANCH   2   7
ATOM      7  N   UNL     1     -15.007   5.170 -38.622  1.00  0.00    -0.318 NA
ATOM      8  H   UNL     1     -14.919   4.893 -39.599  1.00  0.00     0.119 HD
ATOM      9  H   UNL     1     -15.951   4.910 -38.338  1.00  0.00     0.119 HD
ENDBRANCH   2   7
ENDBRANCH   1   2
BRANCH   1  10
ATOM     10  C   UNL     1     -12.536   7.002 -39.526  1.00  0.00     0.026 C 
BRANCH  10  11
ATOM     11  C   UNL     1     -11.680   5.754 -39.715  1.00  0.00     0.146 C 
BRANCH  11  12
ATOM     12  N   UNL     1     -12.393   4.782 -40.546  1.00  0.00    -0.254 NA
ATOM     13  C   UNL     1     -12.045   3.539 -40.419  1.00  0.00     0.185 C 
ATOM     14  N   UNL     1     -12.665   2.565 -41.165  1.00  0.00    -0.370 N 
ATOM     15  N   UNL     1     -11.078   3.013 -39.591  1.00  0.00    -0.370 N 
ATOM     16  H   UNL     1     -13.401   2.799 -41.823  1.00  0.00     0.159 HD
ATOM     17  H   UNL     1     -12.408   1.587 -41.080  1.00  0.00     0.159 HD
ATOM     18  H   UNL     1     -10.891   2.016 -39.575  1.00  0.00     0.159 HD
ATOM     19  H   UNL     1     -10.520   3.591 -38.973  1.00  0.00     0.159 HD
ENDBRANCH  11  12
ENDBRANCH  10  11
ENDBRANCH   1  10
TORSDOF 7
ENDMDL
MODEL 3
REMARK VINA RESULT:      -3.8      7.525      8.942
REMARK SMILES NC(N)=NCCC[C@H](N)C(=O)O
REMARK SMILES IDX 7 1 8 2 10 3 11 4 12 5 9 7 6 10 5 11 4 12 2 13 1 14 3 15
REMARK H PARENT 12 6 9 8 9 9 1 16 1 17 3 18 3 19
ROOT
ATOM      1  C   UNL     1     -27.059   7.990 -52.996  1.00  0.00     0.032 C 
ENDROOT
BRANCH   1   2
ATOM      2  C   UNL     1     -28.051   6.847 -52.729  1.00  0.00     0.162 C 
BRANCH   2   3
ATOM      3  C   UNL     1     -29.173   7.263 -51.795  1.00  0.00     0.320 C 
ATOM      4  O   UNL     1     -30.299   6.783 -51.792  1.00  0.00    -0.251 OA
BRANCH   3   5
ATOM      5  O   UNL     1     -28.781   8.228 -50.922  1.00  0.00    -0.480 OA
ATOM      6  H   UNL     1     -28.102   8.819 -51.313  1.00  0.00     0.296 HD
ENDBRANCH   3   5
ENDBRANCH   2   3
BRANCH   2   7
ATOM      7  N   UNL     1     -28.694   6.446 -53.978  1.00  0.00    -0.318 NA
ATOM      8  H   UNL     1     -29.577   5.981 -53.775  1.00  0.00     0.119 HD
ATOM      9  H   UNL     1     -28.114   5.757 -54.456  1.00  0.00     0.119 HD
ENDBRANCH   2   7
ENDBRANCH   1   2
BRANCH   1  10
ATOM     10  C   UNL     1     -25.608   7.577 -52.708  1.00  0.00     0.026 C 
BRANCH  10  11
ATOM     11  C   UNL     1     -24.949   8.462 -51.655  1.00  0.00     0.146 C 
BRANCH  11  12
ATOM     12  N   UNL     1     -25.880   8.701 -50.551  1.00  0.00    -0.254 NA
ATOM     13  C   UNL     1     -25.389   8.645 -49.352  1.00  0.00     0.185 C 
ATOM     14  N   UNL     1     -26.198   8.856 -48.261  1.00  0.00    -0.370 N 
ATOM     15  N   UNL     1     -24.087   8.388 -48.982  1.00  0.00    -0.370 N 
ATOM     16  H   UNL     1     -27.186   9.058 -48.373  1.00  0.00     0.159 HD
ATOM     17  H   UNL     1     -25.834   8.817 -47.314  1.00  0.00     0.159 HD
ATOM     18  H   UNL     1     -23.816   8.370 -48.006  1.00  0.00     0.159 HD
ATOM     19  H   UNL     1     -23.357   8.206 -49.662  1.00  0.00     0.159 HD
ENDBRANCH  11  12
ENDBRANCH  10  11
ENDBRANCH   1  10
TORSDOF 7
ENDMDL
