MODEL 1
REMARK VINA RESULT:      -5.2      0.000      0.000
REMARK SMILES C#C[C@]1(O)CC[C@H]2[C@@H]3CCC4=CC(=O)CC[C@@H]4[C@H]3CC[C@@]21CC
REMARK SMILES IDX 14 1 21 2 7 3 8 4 18 5 3 6 20 7 6 8 19 9 17 10 5 11 9 12
REMARK SMILES IDX 10 13 11 14 16 15 2 16 15 17 12 18 13 19 1 20 4 21 22 23
REMARK SMILES IDX 23 24
REMARK H PARENT 4 22
ROOT
ATOM      1  O   UNL     1     -21.000  10.700 -49.198  1.00  0.00    -0.295 OA
ATOM      2  C   UNL     1     -27.186   6.549 -53.192  1.00  0.00     0.013 C 
ATOM      3  C   UNL     1     -25.796   6.861 -53.790  1.00  0.00     0.003 C 
ATOM      4  C   UNL     1     -25.196   8.163 -53.253  1.00  0.00    -0.003 C 
ATOM      5  C   UNL     1     -25.046   8.053 -51.707  1.00  0.00    -0.000 C 
ATOM      6  C   UNL     1     -27.564   5.273 -54.003  1.00  0.00     0.131 C 
ATOM      7  C   UNL     1     -27.025   6.391 -51.669  1.00  0.00     0.011 C 
ATOM      8  C   UNL     1     -26.016   6.722 -55.295  1.00  0.00     0.008 C 
ATOM      9  C   UNL     1     -26.373   7.628 -51.026  1.00  0.00     0.005 C 
ATOM     10  C   UNL     1     -24.463   9.369 -51.104  1.00  0.00     0.019 C 
ATOM     11  C   UNL     1     -27.083   5.617 -55.436  1.00  0.00     0.050 C 
ATOM     12  C   UNL     1     -23.832   8.468 -53.886  1.00  0.00     0.008 C 
ATOM     13  C   UNL     1     -23.268   9.778 -53.348  1.00  0.00     0.032 C 
ATOM     14  C   UNL     1     -23.201   9.797 -51.841  1.00  0.00    -0.063 C 
ATOM     15  C   UNL     1     -24.215   9.204 -49.591  1.00  0.00     0.016 C 
ATOM     16  C   UNL     1     -26.890   4.047 -53.531  1.00  0.00    -0.071 C 
ATOM     17  C   UNL     1     -23.358  10.319 -49.015  1.00  0.00     0.081 C 
ATOM     18  C   UNL     1     -22.083  10.217 -51.228  1.00  0.00     0.046 C 
ATOM     19  C   UNL     1     -22.051  10.404 -49.759  1.00  0.00     0.155 C 
ATOM     20  C   UNL     1     -26.343   3.049 -53.147  1.00  0.00     0.007 C 
ENDROOT
BRANCH   6  21
ATOM     21  O   UNL     1     -28.964   5.034 -54.018  1.00  0.00    -0.377 OA
ATOM     22  H   UNL     1     -29.222   4.673 -53.151  1.00  0.00     0.212 HD
ENDBRANCH   6  21
BRANCH   2  23
ATOM     23  C   UNL     1     -28.244   7.662 -53.459  1.00  0.00     0.008 C 
ATOM     24  C   UNL     1     -29.348   7.589 -52.439  1.00  0.00     0.004 C 
ENDBRANCH   2  23
TORSDOF 2
ENDMDL
MODEL 2
REMARK VINA RESULT:      -5.2     16.202     19.263
REMARK SMILES C#C[C@]1(O)CC[C@H]2[C@@H]3CCC4=CC(=O)CC[C@@H]4[C@H]3CC[C@@]21CC
REMARK SMILES IDX 14 1 21 2 7 3 8 4 18 5 3 6 20 7 6 8 19 9 17 10 5 11 9 12
REMARK SMILES IDX 10 13 11 14 16 15 2 16 15 17 12 18 13 19 1 20 4 21 22 23
REMARK SMILES IDX 23 24
REMARK H PARENT 4 22
ROOT
ATOM      1  O   UNL     1     -11.553  -0.460 -46.068  1.00  0.00    -0.295 OA
ATOM      2  C   UNL     1     -11.538   5.630 -40.206  1.00  0.00     0.013 C 
ATOM      3  C   UNL     1     -10.512   4.477 -40.291  1.00  0.00     0.003 C 
ATOM      4  C   UNL     1     -11.108   3.195 -40.878  1.00  0.00    -0.003 C 
ATOM      5  C   UNL     1     -11.629   3.489 -42.316  1.00  0.00    -0.000 C 
ATOM      6  C   UNL     1     -10.685   6.714 -39.480  1.00  0.00     0.131 C 
ATOM      7  C   UNL     1     -12.012   5.953 -41.635  1.00  0.00     0.011 C 
ATOM      8  C   UNL     1      -9.912   4.430 -38.888  1.00  0.00     0.008 C 
ATOM      9  C   UNL     1     -12.581   4.712 -42.347  1.00  0.00     0.005 C 
ATOM     10  C   UNL     1     -12.272   2.217 -42.951  1.00  0.00     0.019 C 
ATOM     11  C   UNL     1      -9.924   5.895 -38.405  1.00  0.00     0.050 C 
ATOM     12  C   UNL     1     -10.081   2.055 -40.921  1.00  0.00     0.008 C 
ATOM     13  C   UNL     1     -10.706   0.787 -41.491  1.00  0.00     0.032 C 
ATOM     14  C   UNL     1     -11.341   1.017 -42.840  1.00  0.00    -0.063 C 
ATOM     15  C   UNL     1     -12.681   2.493 -44.412  1.00  0.00     0.016 C 
ATOM     16  C   UNL     1      -9.719   7.401 -40.360  1.00  0.00    -0.071 C 
ATOM     17  C   UNL     1     -13.009   1.222 -45.177  1.00  0.00     0.081 C 
ATOM     18  C   UNL     1     -11.102   0.161 -43.846  1.00  0.00     0.046 C 
ATOM     19  C   UNL     1     -11.843   0.270 -45.124  1.00  0.00     0.155 C 
ATOM     20  C   UNL     1      -8.935   7.961 -41.077  1.00  0.00     0.007 C 
ENDROOT
BRANCH   6  21
ATOM     21  O   UNL     1     -11.487   7.699 -38.844  1.00  0.00    -0.377 OA
ATOM     22  H   UNL     1     -11.096   7.898 -37.975  1.00  0.00     0.212 HD
ENDBRANCH   6  21
BRANCH   2  23
ATOM     23  C   UNL     1     -12.788   5.291 -39.340  1.00  0.00     0.008 C 
ATOM     24  C   UNL     1     -13.980   6.078 -39.812  1.00  0.00     0.004 C 
ENDBRANCH   2  23
TORSDOF 2
ENDMDL
MODEL 3
REMARK VINA RESULT:      -5.1      2.887      4.857
REMARK SMILES C#C[C@]1(O)CC[C@H]2[C@@H]3CCC4=CC(=O)CC[C@@H]4[C@H]3CC[C@@]21CC
REMARK SMILES IDX 14 1 21 2 7 3 8 4 18 5 3 6 20 7 6 8 19 9 17 10 5 11 9 12
REMARK SMILES IDX 10 13 11 14 16 15 2 16 15 17 12 18 13 19 1 20 4 21 22 23
REMARK SMILES IDX 23 24
REMARK H PARENT 4 22
ROOT
ATOM      1  O   UNL     1     -26.865  11.229 -51.971  1.00  0.00    -0.295 OA
ATOM      2  C   UNL     1     -24.645   3.602 -54.860  1.00  0.00     0.013 C 
ATOM      3  C   UNL     1     -26.091   4.043 -54.538  1.00  0.00     0.003 C 
ATOM      4  C   UNL     1     -26.160   5.070 -53.405  1.00  0.00    -0.003 C 
ATOM      5  C   UNL     1     -25.346   6.333 -53.814  1.00  0.00    -0.000 C 
ATOM      6  C   UNL     1     -24.917   2.503 -55.932  1.00  0.00     0.131 C 
ATOM      7  C   UNL     1     -23.857   4.844 -55.314  1.00  0.00     0.011 C 
ATOM      8  C   UNL     1     -26.839   2.722 -54.375  1.00  0.00     0.008 C 
ATOM      9  C   UNL     1     -23.908   5.973 -54.267  1.00  0.00     0.005 C 
ATOM     10  C   UNL     1     -25.362   7.403 -52.679  1.00  0.00     0.019 C 
ATOM     11  C   UNL     1     -26.147   1.754 -55.358  1.00  0.00     0.050 C 
ATOM     12  C   UNL     1     -27.606   5.467 -53.080  1.00  0.00     0.008 C 
ATOM     13  C   UNL     1     -27.646   6.475 -51.937  1.00  0.00     0.032 C 
ATOM     14  C   UNL     1     -26.782   7.682 -52.207  1.00  0.00    -0.063 C 
ATOM     15  C   UNL     1     -24.649   8.690 -53.142  1.00  0.00     0.016 C 
ATOM     16  C   UNL     1     -25.239   3.042 -57.269  1.00  0.00    -0.071 C 
ATOM     17  C   UNL     1     -24.909   9.867 -52.218  1.00  0.00     0.081 C 
ATOM     18  C   UNL     1     -27.270   8.913 -51.988  1.00  0.00     0.046 C 
ATOM     19  C   UNL     1     -26.391  10.102 -52.083  1.00  0.00     0.155 C 
ATOM     20  C   UNL     1     -25.500   3.480 -58.356  1.00  0.00     0.007 C 
ENDROOT
BRANCH   6  21
ATOM     21  O   UNL     1     -23.831   1.597 -56.067  1.00  0.00    -0.377 OA
ATOM     22  H   UNL     1     -23.202   1.764 -55.344  1.00  0.00     0.212 HD
ENDBRANCH   6  21
BRANCH   2  23
ATOM     23  C   UNL     1     -23.901   2.967 -53.648  1.00  0.00     0.008 C 
ATOM     24  C   UNL     1     -22.413   3.132 -53.802  1.00  0.00     0.004 C 
ENDBRANCH   2  23
TORSDOF 2
ENDMDL
