MODEL 1
REMARK VINA RESULT:      -7.0      0.000      0.000
REMARK SMILES C#C[C@]1(O)CC[C@H]2[C@@H]3CCC4=CC(=O)CC[C@@H]4[C@H]3CC[C@@]21CC
REMARK SMILES IDX 14 1 21 2 7 3 8 4 18 5 3 6 20 7 6 8 19 9 17 10 5 11 9 12
REMARK SMILES IDX 10 13 11 14 16 15 2 16 15 17 12 18 13 19 1 20 4 21 22 23
REMARK SMILES IDX 23 24
REMARK H PARENT 4 22
ROOT
ATOM      1  O   UNL     1      22.103 -10.497  12.641  1.00  0.00    -0.295 OA
ATOM      2  C   UNL     1      24.681  -6.605  19.688  1.00  0.00     0.013 C 
ATOM      3  C   UNL     1      24.278  -8.094  19.593  1.00  0.00     0.003 C 
ATOM      4  C   UNL     1      23.207  -8.353  18.529  1.00  0.00    -0.003 C 
ATOM      5  C   UNL     1      23.753  -7.907  17.141  1.00  0.00    -0.000 C 
ATOM      6  C   UNL     1      25.660  -6.654  20.900  1.00  0.00     0.131 C 
ATOM      7  C   UNL     1      25.267  -6.182  18.329  1.00  0.00     0.011 C 
ATOM      8  C   UNL     1      23.979  -8.476  21.041  1.00  0.00     0.008 C 
ATOM      9  C   UNL     1      24.290  -6.453  17.170  1.00  0.00     0.005 C 
ATOM     10  C   UNL     1      22.687  -8.125  16.023  1.00  0.00     0.019 C 
ATOM     11  C   UNL     1      24.950  -7.622  21.882  1.00  0.00     0.050 C 
ATOM     12  C   UNL     1      22.800  -9.831  18.477  1.00  0.00     0.008 C 
ATOM     13  C   UNL     1      21.720 -10.056  17.424  1.00  0.00     0.032 C 
ATOM     14  C   UNL     1      22.128  -9.541  16.066  1.00  0.00    -0.063 C 
ATOM     15  C   UNL     1      23.280  -7.786  14.640  1.00  0.00     0.016 C 
ATOM     16  C   UNL     1      26.999  -7.178  20.563  1.00  0.00    -0.071 C 
ATOM     17  C   UNL     1      22.413  -8.279  13.495  1.00  0.00     0.081 C 
ATOM     18  C   UNL     1      21.948 -10.308  14.979  1.00  0.00     0.046 C 
ATOM     19  C   UNL     1      22.182  -9.763  13.622  1.00  0.00     0.155 C 
ATOM     20  C   UNL     1      28.088  -7.603  20.289  1.00  0.00     0.007 C 
ENDROOT
BRANCH   6  21
ATOM     21  O   UNL     1      25.821  -5.386  21.519  1.00  0.00    -0.377 OA
ATOM     22  H   UNL     1      26.271  -5.516  22.372  1.00  0.00     0.212 HD
ENDBRANCH   6  21
BRANCH   2  23
ATOM     23  C   UNL     1      23.491  -5.657  20.024  1.00  0.00     0.008 C 
ATOM     24  C   UNL     1      23.722  -4.296  19.426  1.00  0.00     0.004 C 
ENDBRANCH   2  23
TORSDOF 2
ENDMDL
MODEL 2
REMARK VINA RESULT:      -6.0      3.710      6.059
REMARK SMILES C#C[C@]1(O)CC[C@H]2[C@@H]3CCC4=CC(=O)CC[C@@H]4[C@H]3CC[C@@]21CC
REMARK SMILES IDX 14 1 21 2 7 3 8 4 18 5 3 6 20 7 6 8 19 9 17 10 5 11 9 12
REMARK SMILES IDX 10 13 11 14 16 15 2 16 15 17 12 18 13 19 1 20 4 21 22 23
REMARK SMILES IDX 23 24
REMARK H PARENT 4 22
ROOT
ATOM      1  O   UNL     1      18.552 -11.813   9.574  1.00  0.00    -0.295 OA
ATOM      2  C   UNL     1      24.093 -11.539  15.952  1.00  0.00     0.013 C 
ATOM      3  C   UNL     1      22.980 -10.497  15.697  1.00  0.00     0.003 C 
ATOM      4  C   UNL     1      22.650 -10.332  14.211  1.00  0.00    -0.003 C 
ATOM      5  C   UNL     1      22.174 -11.701  13.642  1.00  0.00    -0.000 C 
ATOM      6  C   UNL     1      24.274 -11.388  17.493  1.00  0.00     0.131 C 
ATOM      7  C   UNL     1      23.598 -12.901  15.435  1.00  0.00     0.011 C 
ATOM      8  C   UNL     1      23.450  -9.274  16.482  1.00  0.00     0.008 C 
ATOM      9  C   UNL     1      23.180 -12.839  13.954  1.00  0.00     0.005 C 
ATOM     10  C   UNL     1      21.849 -11.594  12.120  1.00  0.00     0.019 C 
ATOM     11  C   UNL     1      24.195  -9.853  17.703  1.00  0.00     0.050 C 
ATOM     12  C   UNL     1      21.568  -9.269  13.981  1.00  0.00     0.008 C 
ATOM     13  C   UNL     1      21.273  -9.113  12.493  1.00  0.00     0.032 C 
ATOM     14  C   UNL     1      20.916 -10.424  11.838  1.00  0.00    -0.063 C 
ATOM     15  C   UNL     1      21.272 -12.926  11.597  1.00  0.00     0.016 C 
ATOM     16  C   UNL     1      23.222 -12.055  18.285  1.00  0.00    -0.071 C 
ATOM     17  C   UNL     1      20.642 -12.790  10.222  1.00  0.00     0.081 C 
ATOM     18  C   UNL     1      19.849 -10.497  11.027  1.00  0.00     0.046 C 
ATOM     19  C   UNL     1      19.578 -11.724  10.243  1.00  0.00     0.155 C 
ATOM     20  C   UNL     1      22.367 -12.599  18.929  1.00  0.00     0.007 C 
ENDROOT
BRANCH   6  21
ATOM     21  O   UNL     1      25.537 -11.862  17.939  1.00  0.00    -0.377 OA
ATOM     22  H   UNL     1      25.425 -12.775  18.258  1.00  0.00     0.212 HD
ENDBRANCH   6  21
BRANCH   2  23
ATOM     23  C   UNL     1      25.437 -11.204  15.239  1.00  0.00     0.008 C 
ATOM     24  C   UNL     1      26.288 -12.439  15.120  1.00  0.00     0.004 C 
ENDBRANCH   2  23
TORSDOF 2
ENDMDL
MODEL 3
REMARK VINA RESULT:      -6.0      1.719      3.527
REMARK SMILES C#C[C@]1(O)CC[C@H]2[C@@H]3CCC4=CC(=O)CC[C@@H]4[C@H]3CC[C@@]21CC
REMARK SMILES IDX 14 1 21 2 7 3 8 4 18 5 3 6 20 7 6 8 19 9 17 10 5 11 9 12
REMARK SMILES IDX 10 13 11 14 16 15 2 16 15 17 12 18 13 19 1 20 4 21 22 23
REMARK SMILES IDX 23 24
REMARK H PARENT 4 22
ROOT
ATOM      1  O   UNL     1      20.680 -10.064  12.461  1.00  0.00    -0.295 OA
ATOM      2  C   UNL     1      24.819  -9.312  19.793  1.00  0.00     0.013 C 
ATOM      3  C   UNL     1      24.598  -8.169  18.777  1.00  0.00     0.003 C 
ATOM      4  C   UNL     1      24.530  -8.665  17.330  1.00  0.00    -0.003 C 
ATOM      5  C   UNL     1      23.350  -9.672  17.193  1.00  0.00    -0.000 C 
ATOM      6  C   UNL     1      24.960  -8.494  21.112  1.00  0.00     0.131 C 
ATOM      7  C   UNL     1      23.625 -10.278  19.691  1.00  0.00     0.011 C 
ATOM      8  C   UNL     1      25.669  -7.147  19.151  1.00  0.00     0.008 C 
ATOM      9  C   UNL     1      23.425 -10.798  18.255  1.00  0.00     0.005 C 
ATOM     10  C   UNL     1      23.254 -10.230  15.739  1.00  0.00     0.019 C 
ATOM     11  C   UNL     1      25.825  -7.283  20.680  1.00  0.00     0.050 C 
ATOM     12  C   UNL     1      24.344  -7.510  16.337  1.00  0.00     0.008 C 
ATOM     13  C   UNL     1      24.300  -8.030  14.905  1.00  0.00     0.032 C 
ATOM     14  C   UNL     1      23.254  -9.101  14.717  1.00  0.00    -0.063 C 
ATOM     15  C   UNL     1      22.015 -11.136  15.591  1.00  0.00     0.016 C 
ATOM     16  C   UNL     1      23.673  -8.019  21.659  1.00  0.00    -0.071 C 
ATOM     17  C   UNL     1      21.687 -11.445  14.141  1.00  0.00     0.081 C 
ATOM     18  C   UNL     1      22.420  -9.042  13.667  1.00  0.00     0.046 C 
ATOM     19  C   UNL     1      21.501 -10.165  13.368  1.00  0.00     0.155 C 
ATOM     20  C   UNL     1      22.626  -7.633  22.104  1.00  0.00     0.007 C 
ENDROOT
BRANCH   6  21
ATOM     21  O   UNL     1      25.635  -9.219  22.130  1.00  0.00    -0.377 OA
ATOM     22  H   UNL     1      25.935 -10.066  21.755  1.00  0.00     0.212 HD
ENDBRANCH   6  21
BRANCH   2  23
ATOM     23  C   UNL     1      26.126 -10.122  19.546  1.00  0.00     0.008 C 
ATOM     24  C   UNL     1      25.978 -11.526  20.068  1.00  0.00     0.004 C 
ENDBRANCH   2  23
TORSDOF 2
ENDMDL
