MODEL 1
REMARK VINA RESULT:      -5.6      0.000      0.000
REMARK SMILES CC(C)(O)c1ccccc1CC[C@@H](SCC1(CC(=O)O)CC1)c1cccc(/C=C/c2ccc3ccc(Cl)cc3n2)c1
REMARK SMILES IDX 13 1 23 2 27 3 41 4 26 5 25 6 24 7 28 8 29 9 30 10 36 11
REMARK SMILES IDX 38 12 35 13 39 14 34 15 40 16 33 17 32 18 31 19 37 20 14 21
REMARK SMILES IDX 15 22 16 23 21 24 22 25 17 26 18 27 19 28 20 29 12 31 11 32
REMARK SMILES IDX 10 33 5 34 9 35 6 36 8 37 7 38 2 39 1 40 3 41 4 42
REMARK H PARENT 20 30 4 43
ROOT
ATOM      1  C   UNL     1     -11.083   4.807 -42.061  1.00  0.00     0.077 C 
ENDROOT
BRANCH   1   2
ATOM      2  C   UNL     1     -11.823   5.320 -40.873  1.00  0.00    -0.034 A 
ATOM      3  C   UNL     1     -13.585   6.678 -39.931  1.00  0.00    -0.025 A 
ATOM      4  C   UNL     1     -12.894   6.197 -41.043  1.00  0.00     0.013 A 
ATOM      5  C   UNL     1     -13.207   6.281 -38.649  1.00  0.00     0.008 A 
ATOM      6  C   UNL     1     -12.135   5.404 -38.479  1.00  0.00     0.001 A 
ATOM      7  C   UNL     1     -11.443   4.924 -39.590  1.00  0.00     0.005 A 
BRANCH   3   8
ATOM      8  C   UNL     1     -14.717   7.605 -40.111  1.00  0.00     0.010 C 
ATOM      9  C   UNL     1     -14.668   8.774 -40.791  1.00  0.00     0.029 C 
BRANCH   9  10
ATOM     10  C   UNL     1     -15.791   9.678 -40.984  1.00  0.00     0.064 A 
ATOM     11  C   UNL     1     -20.161  10.948 -39.618  1.00  0.00     0.043 A 
ATOM     12  C   UNL     1     -19.037  10.124 -39.500  1.00  0.00     0.049 A 
ATOM     13  C   UNL     1     -20.181  11.964 -40.564  1.00  0.00     0.021 A 
ATOM     14  C   UNL     1     -17.921  10.292 -40.314  1.00  0.00     0.072 A 
ATOM     15  C   UNL     1     -19.077  12.155 -41.391  1.00  0.00     0.012 A 
ATOM     16  N   UNL     1     -16.855   9.482 -40.175  1.00  0.00    -0.248 NA
ATOM     17  C   UNL     1     -17.948  11.327 -41.272  1.00  0.00     0.000 A 
ATOM     18  C   UNL     1     -16.824  11.497 -42.092  1.00  0.00     0.012 A 
ATOM     19  C   UNL     1     -15.725  10.662 -41.950  1.00  0.00     0.029 A 
ATOM     20  Cl  UNL     1     -21.519  10.702 -38.590  1.00  0.00    -0.084 Cl
ENDBRANCH   9  10
ENDBRANCH   3   8
ENDBRANCH   1   2
BRANCH   1  21
ATOM     21  S   UNL     1     -10.116   6.164 -42.861  1.00  0.00    -0.153 SA
BRANCH  21  22
ATOM     22  C   UNL     1     -11.217   6.436 -44.263  1.00  0.00     0.077 C 
BRANCH  22  23
ATOM     23  C   UNL     1     -11.867   7.775 -44.170  1.00  0.00    -0.010 C 
ATOM     24  C   UNL     1     -13.361   7.841 -44.301  1.00  0.00     0.009 C 
ATOM     25  C   UNL     1     -12.487   8.342 -45.414  1.00  0.00     0.009 C 
BRANCH  23  26
ATOM     26  C   UNL     1     -11.207   8.720 -43.228  1.00  0.00     0.130 C 
BRANCH  26  27
ATOM     27  C   UNL     1     -10.399   9.792 -43.917  1.00  0.00     0.303 C 
ATOM     28  O   UNL     1      -9.344   9.622 -44.511  1.00  0.00    -0.252 OA
BRANCH  27  29
ATOM     29  O   UNL     1     -11.008  10.998 -43.790  1.00  0.00    -0.481 OA
ATOM     30  H   UNL     1     -11.813  11.062 -44.347  1.00  0.00     0.296 HD
ENDBRANCH  27  29
ENDBRANCH  26  27
ENDBRANCH  23  26
ENDBRANCH  22  23
ENDBRANCH  21  22
ENDBRANCH   1  21
BRANCH   1  31
ATOM     31  C   UNL     1     -11.935   4.102 -43.155  1.00  0.00     0.024 C 
BRANCH  31  32
ATOM     32  C   UNL     1     -12.516   2.744 -42.716  1.00  0.00     0.037 C 
BRANCH  32  33
ATOM     33  C   UNL     1     -12.089   1.560 -43.545  1.00  0.00    -0.042 A 
ATOM     34  C   UNL     1     -11.121   0.669 -43.079  1.00  0.00    -0.014 A 
ATOM     35  C   UNL     1     -12.677   1.360 -44.794  1.00  0.00     0.004 A 
ATOM     36  C   UNL     1     -10.742  -0.420 -43.863  1.00  0.00     0.007 A 
ATOM     37  C   UNL     1     -12.298   0.270 -45.578  1.00  0.00     0.000 A 
ATOM     38  C   UNL     1     -11.330  -0.620 -45.112  1.00  0.00     0.000 A 
BRANCH  34  39
ATOM     39  C   UNL     1     -10.478   0.863 -41.745  1.00  0.00     0.084 C 
ATOM     40  C   UNL     1      -9.260   1.821 -41.745  1.00  0.00     0.047 C 
ATOM     41  C   UNL     1     -10.048  -0.493 -41.145  1.00  0.00     0.047 C 
BRANCH  39  42
ATOM     42  O   UNL     1     -11.414   1.454 -40.816  1.00  0.00    -0.386 OA
ATOM     43  H   UNL     1     -11.364   2.421 -40.906  1.00  0.00     0.211 HD
ENDBRANCH  39  42
ENDBRANCH  34  39
ENDBRANCH  32  33
ENDBRANCH  31  32
ENDBRANCH   1  31
TORSDOF 14
ENDMDL
MODEL 2
REMARK VINA RESULT:      -5.6      1.275      2.247
REMARK SMILES CC(C)(O)c1ccccc1CC[C@@H](SCC1(CC(=O)O)CC1)c1cccc(/C=C/c2ccc3ccc(Cl)cc3n2)c1
REMARK SMILES IDX 13 1 23 2 27 3 41 4 26 5 25 6 24 7 28 8 29 9 30 10 36 11
REMARK SMILES IDX 38 12 35 13 39 14 34 15 40 16 33 17 32 18 31 19 37 20 14 21
REMARK SMILES IDX 15 22 16 23 21 24 22 25 17 26 18 27 19 28 20 29 12 31 11 32
REMARK SMILES IDX 10 33 5 34 9 35 6 36 8 37 7 38 2 39 1 40 3 41 4 42
REMARK H PARENT 20 30 4 43
ROOT
ATOM      1  C   UNL     1     -11.042   4.704 -42.137  1.00  0.00     0.077 C 
ENDROOT
BRANCH   1   2
ATOM      2  C   UNL     1     -11.812   5.205 -40.962  1.00  0.00    -0.034 A 
ATOM      3  C   UNL     1     -13.623   6.521 -40.054  1.00  0.00    -0.025 A 
ATOM      4  C   UNL     1     -12.903   6.052 -41.153  1.00  0.00     0.013 A 
ATOM      5  C   UNL     1     -13.253   6.142 -38.764  1.00  0.00     0.008 A 
ATOM      6  C   UNL     1     -12.161   5.294 -38.574  1.00  0.00     0.001 A 
ATOM      7  C   UNL     1     -11.440   4.825 -39.671  1.00  0.00     0.005 A 
BRANCH   3   8
ATOM      8  C   UNL     1     -14.776   7.417 -40.256  1.00  0.00     0.010 C 
ATOM      9  C   UNL     1     -14.698   8.722 -40.608  1.00  0.00     0.029 C 
BRANCH   9  10
ATOM     10  C   UNL     1     -15.837   9.599 -40.826  1.00  0.00     0.064 A 
ATOM     11  C   UNL     1     -20.212  10.856 -39.463  1.00  0.00     0.043 A 
ATOM     12  C   UNL     1     -19.075  10.055 -39.324  1.00  0.00     0.049 A 
ATOM     13  C   UNL     1     -20.259  11.831 -40.451  1.00  0.00     0.021 A 
ATOM     14  C   UNL     1     -17.970  10.207 -40.157  1.00  0.00     0.072 A 
ATOM     15  C   UNL     1     -19.167  12.005 -41.297  1.00  0.00     0.012 A 
ATOM     16  N   UNL     1     -16.890   9.420 -39.996  1.00  0.00    -0.248 NA
ATOM     17  C   UNL     1     -18.024  11.201 -41.157  1.00  0.00     0.000 A 
ATOM     18  C   UNL     1     -16.912  11.354 -41.996  1.00  0.00     0.012 A 
ATOM     19  C   UNL     1     -15.797  10.543 -41.832  1.00  0.00     0.029 A 
ATOM     20  Cl  UNL     1     -21.556  10.632 -38.410  1.00  0.00    -0.084 Cl
ENDBRANCH   9  10
ENDBRANCH   3   8
ENDBRANCH   1   2
BRANCH   1  21
ATOM     21  S   UNL     1      -9.907   6.015 -42.777  1.00  0.00    -0.153 SA
BRANCH  21  22
ATOM     22  C   UNL     1     -10.874   6.467 -44.230  1.00  0.00     0.077 C 
BRANCH  22  23
ATOM     23  C   UNL     1     -11.535   7.790 -44.032  1.00  0.00    -0.010 C 
ATOM     24  C   UNL     1     -10.709   9.026 -44.240  1.00  0.00     0.009 C 
ATOM     25  C   UNL     1     -11.112   8.617 -42.853  1.00  0.00     0.009 C 
BRANCH  23  26
ATOM     26  C   UNL     1     -12.967   7.832 -44.434  1.00  0.00     0.130 C 
BRANCH  26  27
ATOM     27  C   UNL     1     -13.285   8.931 -45.419  1.00  0.00     0.303 C 
ATOM     28  O   UNL     1     -12.986   8.938 -46.604  1.00  0.00    -0.252 OA
BRANCH  27  29
ATOM     29  O   UNL     1     -13.962   9.934 -44.806  1.00  0.00    -0.481 OA
ATOM     30  H   UNL     1     -14.289   9.667 -43.920  1.00  0.00     0.296 HD
ENDBRANCH  27  29
ENDBRANCH  26  27
ENDBRANCH  23  26
ENDBRANCH  22  23
ENDBRANCH  21  22
ENDBRANCH   1  21
BRANCH   1  31
ATOM     31  C   UNL     1     -11.878   4.155 -43.328  1.00  0.00     0.024 C 
BRANCH  31  32
ATOM     32  C   UNL     1     -12.615   2.838 -43.020  1.00  0.00     0.037 C 
BRANCH  32  33
ATOM     33  C   UNL     1     -11.730   1.650 -42.744  1.00  0.00    -0.042 A 
ATOM     34  C   UNL     1     -11.462   0.708 -43.738  1.00  0.00    -0.014 A 
ATOM     35  C   UNL     1     -11.176   1.499 -41.473  1.00  0.00     0.004 A 
ATOM     36  C   UNL     1     -10.640  -0.384 -43.460  1.00  0.00     0.007 A 
ATOM     37  C   UNL     1     -10.354   0.407 -41.195  1.00  0.00     0.000 A 
ATOM     38  C   UNL     1     -10.086  -0.534 -42.189  1.00  0.00     0.000 A 
BRANCH  34  39
ATOM     39  C   UNL     1     -12.044   0.849 -45.106  1.00  0.00     0.084 C 
ATOM     40  C   UNL     1     -13.527   1.298 -45.138  1.00  0.00     0.047 C 
ATOM     41  C   UNL     1     -11.905  -0.471 -45.897  1.00  0.00     0.047 C 
BRANCH  39  42
ATOM     42  O   UNL     1     -11.334   1.861 -45.854  1.00  0.00    -0.386 OA
ATOM     43  H   UNL     1     -10.497   1.477 -46.168  1.00  0.00     0.211 HD
ENDBRANCH  39  42
ENDBRANCH  34  39
ENDBRANCH  32  33
ENDBRANCH  31  32
ENDBRANCH   1  31
TORSDOF 14
ENDMDL
MODEL 3
REMARK VINA RESULT:      -5.5     15.610     17.682
REMARK SMILES CC(C)(O)c1ccccc1CC[C@@H](SCC1(CC(=O)O)CC1)c1cccc(/C=C/c2ccc3ccc(Cl)cc3n2)c1
REMARK SMILES IDX 13 1 23 2 27 3 41 4 26 5 25 6 24 7 28 8 29 9 30 10 36 11
REMARK SMILES IDX 38 12 35 13 39 14 34 15 40 16 33 17 32 18 31 19 37 20 14 21
REMARK SMILES IDX 15 22 16 23 21 24 22 25 17 26 18 27 19 28 20 29 12 31 11 32
REMARK SMILES IDX 10 33 5 34 9 35 6 36 8 37 7 38 2 39 1 40 3 41 4 42
REMARK H PARENT 20 30 4 43
ROOT
ATOM      1  C   UNL     1     -27.033   4.758 -53.927  1.00  0.00     0.077 C 
ENDROOT
BRANCH   1   2
ATOM      2  C   UNL     1     -27.571   5.864 -53.084  1.00  0.00    -0.034 A 
ATOM      3  C   UNL     1     -27.209   7.854 -51.764  1.00  0.00    -0.025 A 
ATOM      4  C   UNL     1     -26.706   6.820 -52.553  1.00  0.00     0.013 A 
ATOM      5  C   UNL     1     -28.577   7.933 -51.506  1.00  0.00     0.008 A 
ATOM      6  C   UNL     1     -29.442   6.976 -52.037  1.00  0.00     0.001 A 
ATOM      7  C   UNL     1     -28.940   5.942 -52.826  1.00  0.00     0.005 A 
BRANCH   3   8
ATOM      8  C   UNL     1     -26.294   8.865 -51.202  1.00  0.00     0.010 C 
ATOM      9  C   UNL     1     -25.622   8.745 -50.034  1.00  0.00     0.029 C 
BRANCH   9  10
ATOM     10  C   UNL     1     -24.704   9.735 -49.490  1.00  0.00     0.064 A 
ATOM     11  C   UNL     1     -20.184  10.949 -48.673  1.00  0.00     0.043 A 
ATOM     12  C   UNL     1     -21.135  10.054 -49.171  1.00  0.00     0.049 A 
ATOM     13  C   UNL     1     -20.591  12.140 -48.085  1.00  0.00     0.021 A 
ATOM     14  C   UNL     1     -22.499  10.322 -49.095  1.00  0.00     0.072 A 
ATOM     15  C   UNL     1     -21.949  12.433 -47.996  1.00  0.00     0.012 A 
ATOM     16  N   UNL     1     -23.389   9.438 -49.583  1.00  0.00    -0.248 NA
ATOM     17  C   UNL     1     -22.905  11.533 -48.497  1.00  0.00     0.000 A 
ATOM     18  C   UNL     1     -24.279  11.803 -48.420  1.00  0.00     0.012 A 
ATOM     19  C   UNL     1     -25.198  10.893 -48.923  1.00  0.00     0.029 A 
ATOM     20  Cl  UNL     1     -18.508  10.576 -48.789  1.00  0.00    -0.084 Cl
ENDBRANCH   9  10
ENDBRANCH   3   8
ENDBRANCH   1   2
BRANCH   1  21
ATOM     21  S   UNL     1     -28.306   4.185 -55.138  1.00  0.00    -0.153 SA
BRANCH  21  22
ATOM     22  C   UNL     1     -28.034   5.463 -56.381  1.00  0.00     0.077 C 
BRANCH  22  23
ATOM     23  C   UNL     1     -27.839   4.853 -57.729  1.00  0.00    -0.010 C 
ATOM     24  C   UNL     1     -27.127   3.534 -57.806  1.00  0.00     0.009 C 
ATOM     25  C   UNL     1     -26.441   4.786 -58.272  1.00  0.00     0.009 C 
BRANCH  23  26
ATOM     26  C   UNL     1     -28.948   5.105 -58.688  1.00  0.00     0.130 C 
BRANCH  26  27
ATOM     27  C   UNL     1     -30.138   4.201 -58.485  1.00  0.00     0.303 C 
ATOM     28  O   UNL     1     -30.323   3.126 -59.038  1.00  0.00    -0.252 OA
BRANCH  27  29
ATOM     29  O   UNL     1     -30.999   4.745 -57.588  1.00  0.00    -0.481 OA
ATOM     30  H   UNL     1     -31.271   4.098 -56.903  1.00  0.00     0.296 HD
ENDBRANCH  27  29
ENDBRANCH  26  27
ENDBRANCH  23  26
ENDBRANCH  22  23
ENDBRANCH  21  22
ENDBRANCH   1  21
BRANCH   1  31
ATOM     31  C   UNL     1     -26.483   3.516 -53.170  1.00  0.00     0.024 C 
BRANCH  31  32
ATOM     32  C   UNL     1     -24.988   3.242 -53.420  1.00  0.00     0.037 C 
BRANCH  32  33
ATOM     33  C   UNL     1     -24.659   2.614 -54.751  1.00  0.00    -0.042 A 
ATOM     34  C   UNL     1     -23.629   3.116 -55.546  1.00  0.00    -0.014 A 
ATOM     35  C   UNL     1     -25.402   1.515 -55.183  1.00  0.00     0.004 A 
ATOM     36  C   UNL     1     -23.342   2.520 -56.773  1.00  0.00     0.007 A 
ATOM     37  C   UNL     1     -25.114   0.919 -56.411  1.00  0.00     0.000 A 
ATOM     38  C   UNL     1     -24.085   1.421 -57.206  1.00  0.00     0.000 A 
BRANCH  34  39
ATOM     39  C   UNL     1     -22.821   4.292 -55.103  1.00  0.00     0.084 C 
ATOM     40  C   UNL     1     -23.606   5.625 -55.017  1.00  0.00     0.047 C 
ATOM     41  C   UNL     1     -21.597   4.491 -56.025  1.00  0.00     0.047 C 
BRANCH  39  42
ATOM     42  O   UNL     1     -22.308   4.077 -53.769  1.00  0.00    -0.386 OA
ATOM     43  H   UNL     1     -22.372   4.915 -53.279  1.00  0.00     0.211 HD
ENDBRANCH  39  42
ENDBRANCH  34  39
ENDBRANCH  32  33
ENDBRANCH  31  32
ENDBRANCH   1  31
TORSDOF 14
ENDMDL
