MODEL 1
REMARK VINA RESULT:      -8.0      0.000      0.000
REMARK SMILES CC(C)(O)c1ccccc1CC[C@@H](SCC1(CC(=O)O)CC1)c1cccc(/C=C/c2ccc3ccc(Cl)cc3n2)c1
REMARK SMILES IDX 13 1 23 2 27 3 41 4 26 5 25 6 24 7 28 8 29 9 30 10 36 11
REMARK SMILES IDX 38 12 35 13 39 14 34 15 40 16 33 17 32 18 31 19 37 20 14 21
REMARK SMILES IDX 15 22 16 23 21 24 22 25 17 26 18 27 19 28 20 29 12 31 11 32
REMARK SMILES IDX 10 33 5 34 9 35 6 36 8 37 7 38 2 39 1 40 3 41 4 42
REMARK H PARENT 20 30 4 43
ROOT
ATOM      1  C   UNL     1      20.006   2.124   2.903  1.00  0.00     0.077 C 
ENDROOT
BRANCH   1   2
ATOM      2  C   UNL     1      19.582   1.033   3.828  1.00  0.00    -0.034 A 
ATOM      3  C   UNL     1      19.025   0.275   6.053  1.00  0.00    -0.025 A 
ATOM      4  C   UNL     1      19.421   1.295   5.188  1.00  0.00     0.013 A 
ATOM      5  C   UNL     1      18.790  -1.007   5.558  1.00  0.00     0.008 A 
ATOM      6  C   UNL     1      18.951  -1.269   4.197  1.00  0.00     0.001 A 
ATOM      7  C   UNL     1      19.347  -0.250   3.332  1.00  0.00     0.005 A 
BRANCH   3   8
ATOM      8  C   UNL     1      18.856   0.552   7.491  1.00  0.00     0.010 C 
ATOM      9  C   UNL     1      19.844   0.513   8.415  1.00  0.00     0.029 C 
BRANCH   9  10
ATOM     10  C   UNL     1      19.679   0.806   9.830  1.00  0.00     0.064 A 
ATOM     11  C   UNL     1      18.559  -0.863  14.136  1.00  0.00     0.043 A 
ATOM     12  C   UNL     1      18.741  -1.055  12.763  1.00  0.00     0.049 A 
ATOM     13  C   UNL     1      18.766   0.392  14.696  1.00  0.00     0.021 A 
ATOM     14  C   UNL     1      19.132  -0.013  11.926  1.00  0.00     0.072 A 
ATOM     15  C   UNL     1      19.158   1.451  13.881  1.00  0.00     0.012 A 
ATOM     16  N   UNL     1      19.299  -0.232  10.609  1.00  0.00    -0.248 NA
ATOM     17  C   UNL     1      19.342   1.257  12.502  1.00  0.00     0.000 A 
ATOM     18  C   UNL     1      19.735   2.306  11.659  1.00  0.00     0.012 A 
ATOM     19  C   UNL     1      19.908   2.083  10.301  1.00  0.00     0.029 A 
ATOM     20  Cl  UNL     1      18.075  -2.180  15.132  1.00  0.00    -0.084 Cl
ENDBRANCH   9  10
ENDBRANCH   3   8
ENDBRANCH   1   2
BRANCH   1  21
ATOM     21  S   UNL     1      21.342   1.534   1.771  1.00  0.00    -0.153 SA
BRANCH  21  22
ATOM     22  C   UNL     1      22.732   2.272   2.650  1.00  0.00     0.077 C 
BRANCH  22  23
ATOM     23  C   UNL     1      23.859   2.551   1.713  1.00  0.00    -0.010 C 
ATOM     24  C   UNL     1      23.648   3.590   0.650  1.00  0.00     0.009 C 
ATOM     25  C   UNL     1      23.700   2.136   0.280  1.00  0.00     0.009 C 
BRANCH  23  26
ATOM     26  C   UNL     1      25.212   2.443   2.323  1.00  0.00     0.130 C 
BRANCH  26  27
ATOM     27  C   UNL     1      25.992   3.734   2.294  1.00  0.00     0.303 C 
ATOM     28  O   UNL     1      25.772   4.719   2.983  1.00  0.00    -0.252 OA
BRANCH  27  29
ATOM     29  O   UNL     1      26.994   3.660   1.382  1.00  0.00    -0.481 OA
ATOM     30  H   UNL     1      26.994   4.431   0.775  1.00  0.00     0.296 HD
ENDBRANCH  27  29
ENDBRANCH  26  27
ENDBRANCH  23  26
ENDBRANCH  22  23
ENDBRANCH  21  22
ENDBRANCH   1  21
BRANCH   1  31
ATOM     31  C   UNL     1      20.476   3.450   3.567  1.00  0.00     0.024 C 
BRANCH  31  32
ATOM     32  C   UNL     1      20.031   4.718   2.814  1.00  0.00     0.037 C 
BRANCH  32  33
ATOM     33  C   UNL     1      21.144   5.639   2.385  1.00  0.00    -0.042 A 
ATOM     34  C   UNL     1      21.157   6.203   1.109  1.00  0.00    -0.014 A 
ATOM     35  C   UNL     1      22.171   5.926   3.285  1.00  0.00     0.004 A 
ATOM     36  C   UNL     1      22.198   7.052   0.733  1.00  0.00     0.007 A 
ATOM     37  C   UNL     1      23.212   6.776   2.908  1.00  0.00     0.000 A 
ATOM     38  C   UNL     1      23.224   7.339   1.633  1.00  0.00     0.000 A 
BRANCH  34  39
ATOM     39  C   UNL     1      20.069   5.910   0.129  1.00  0.00     0.084 C 
ATOM     40  C   UNL     1      18.635   6.183   0.649  1.00  0.00     0.047 C 
ATOM     41  C   UNL     1      20.154   4.448  -0.361  1.00  0.00     0.047 C 
BRANCH  39  42
ATOM     42  O   UNL     1      20.205   6.751  -1.039  1.00  0.00    -0.386 OA
ATOM     43  H   UNL     1      20.577   6.213  -1.760  1.00  0.00     0.211 HD
ENDBRANCH  39  42
ENDBRANCH  34  39
ENDBRANCH  32  33
ENDBRANCH  31  32
ENDBRANCH   1  31
TORSDOF 14
ENDMDL
MODEL 2
REMARK VINA RESULT:      -8.0      3.292      4.950
REMARK SMILES CC(C)(O)c1ccccc1CC[C@@H](SCC1(CC(=O)O)CC1)c1cccc(/C=C/c2ccc3ccc(Cl)cc3n2)c1
REMARK SMILES IDX 13 1 23 2 27 3 41 4 26 5 25 6 24 7 28 8 29 9 30 10 36 11
REMARK SMILES IDX 38 12 35 13 39 14 34 15 40 16 33 17 32 18 31 19 37 20 14 21
REMARK SMILES IDX 15 22 16 23 21 24 22 25 17 26 18 27 19 28 20 29 12 31 11 32
REMARK SMILES IDX 10 33 5 34 9 35 6 36 8 37 7 38 2 39 1 40 3 41 4 42
REMARK H PARENT 20 30 4 43
ROOT
ATOM      1  C   UNL     1      18.441   0.844   4.103  1.00  0.00     0.077 C 
ENDROOT
BRANCH   1   2
ATOM      2  C   UNL     1      18.783  -0.241   5.067  1.00  0.00    -0.034 A 
ATOM      3  C   UNL     1      19.058  -1.011   7.340  1.00  0.00    -0.025 A 
ATOM      4  C   UNL     1      18.737   0.004   6.438  1.00  0.00     0.013 A 
ATOM      5  C   UNL     1      19.422  -2.272   6.869  1.00  0.00     0.008 A 
ATOM      6  C   UNL     1      19.467  -2.517   5.496  1.00  0.00     0.001 A 
ATOM      7  C   UNL     1      19.148  -1.503   4.595  1.00  0.00     0.005 A 
BRANCH   3   8
ATOM      8  C   UNL     1      19.010  -0.751   8.790  1.00  0.00     0.010 C 
ATOM      9  C   UNL     1      19.613   0.285   9.417  1.00  0.00     0.029 C 
BRANCH   9  10
ATOM     10  C   UNL     1      19.549   0.551  10.846  1.00  0.00     0.064 A 
ATOM     11  C   UNL     1      18.142  -0.975  15.120  1.00  0.00     0.043 A 
ATOM     12  C   UNL     1      18.247  -1.149  13.737  1.00  0.00     0.049 A 
ATOM     13  C   UNL     1      18.655   0.169  15.718  1.00  0.00     0.021 A 
ATOM     14  C   UNL     1      18.861  -0.198  12.927  1.00  0.00     0.072 A 
ATOM     15  C   UNL     1      19.275   1.136  14.930  1.00  0.00     0.012 A 
ATOM     16  N   UNL     1      18.946  -0.397  11.598  1.00  0.00    -0.248 NA
ATOM     17  C   UNL     1      19.381   0.961  13.540  1.00  0.00     0.000 A 
ATOM     18  C   UNL     1      19.999   1.919  12.725  1.00  0.00     0.012 A 
ATOM     19  C   UNL     1      20.088   1.716  11.355  1.00  0.00     0.029 A 
ATOM     20  Cl  UNL     1      17.374  -2.178  16.083  1.00  0.00    -0.084 Cl
ENDBRANCH   9  10
ENDBRANCH   3   8
ENDBRANCH   1   2
BRANCH   1  21
ATOM     21  S   UNL     1      18.357   0.182   2.380  1.00  0.00    -0.153 SA
BRANCH  21  22
ATOM     22  C   UNL     1      16.613   0.532   2.083  1.00  0.00     0.077 C 
BRANCH  22  23
ATOM     23  C   UNL     1      15.871  -0.722   1.763  1.00  0.00    -0.010 C 
ATOM     24  C   UNL     1      15.295  -0.864   0.385  1.00  0.00     0.009 C 
ATOM     25  C   UNL     1      14.387  -0.626   1.557  1.00  0.00     0.009 C 
BRANCH  23  26
ATOM     26  C   UNL     1      16.405  -1.943   2.426  1.00  0.00     0.130 C 
BRANCH  26  27
ATOM     27  C   UNL     1      15.714  -2.274   3.726  1.00  0.00     0.303 C 
ATOM     28  O   UNL     1      15.465  -1.484   4.625  1.00  0.00    -0.252 OA
BRANCH  27  29
ATOM     29  O   UNL     1      15.398  -3.593   3.771  1.00  0.00    -0.481 OA
ATOM     30  H   UNL     1      15.690  -4.011   4.609  1.00  0.00     0.296 HD
ENDBRANCH  27  29
ENDBRANCH  26  27
ENDBRANCH  23  26
ENDBRANCH  22  23
ENDBRANCH  21  22
ENDBRANCH   1  21
BRANCH   1  31
ATOM     31  C   UNL     1      19.374   2.089   4.105  1.00  0.00     0.024 C 
BRANCH  31  32
ATOM     32  C   UNL     1      19.023   3.136   3.031  1.00  0.00     0.037 C 
BRANCH  32  33
ATOM     33  C   UNL     1      19.962   4.311   2.941  1.00  0.00    -0.042 A 
ATOM     34  C   UNL     1      19.684   5.389   2.100  1.00  0.00    -0.014 A 
ATOM     35  C   UNL     1      21.123   4.311   3.714  1.00  0.00     0.004 A 
ATOM     36  C   UNL     1      20.569   6.465   2.032  1.00  0.00     0.007 A 
ATOM     37  C   UNL     1      22.008   5.388   3.646  1.00  0.00     0.000 A 
ATOM     38  C   UNL     1      21.730   6.465   2.805  1.00  0.00     0.000 A 
BRANCH  34  39
ATOM     39  C   UNL     1      18.448   5.411   1.263  1.00  0.00     0.084 C 
ATOM     40  C   UNL     1      18.165   4.101   0.487  1.00  0.00     0.047 C 
ATOM     41  C   UNL     1      18.487   6.587   0.262  1.00  0.00     0.047 C 
BRANCH  39  42
ATOM     42  O   UNL     1      17.281   5.609   2.094  1.00  0.00    -0.386 OA
ATOM     43  H   UNL     1      16.641   4.905   1.892  1.00  0.00     0.211 HD
ENDBRANCH  39  42
ENDBRANCH  34  39
ENDBRANCH  32  33
ENDBRANCH  31  32
ENDBRANCH   1  31
TORSDOF 14
ENDMDL
MODEL 3
REMARK VINA RESULT:      -7.8      6.084      8.836
REMARK SMILES CC(C)(O)c1ccccc1CC[C@@H](SCC1(CC(=O)O)CC1)c1cccc(/C=C/c2ccc3ccc(Cl)cc3n2)c1
REMARK SMILES IDX 13 1 23 2 27 3 41 4 26 5 25 6 24 7 28 8 29 9 30 10 36 11
REMARK SMILES IDX 38 12 35 13 39 14 34 15 40 16 33 17 32 18 31 19 37 20 14 21
REMARK SMILES IDX 15 22 16 23 21 24 22 25 17 26 18 27 19 28 20 29 12 31 11 32
REMARK SMILES IDX 10 33 5 34 9 35 6 36 8 37 7 38 2 39 1 40 3 41 4 42
REMARK H PARENT 20 30 4 43
ROOT
ATOM      1  C   UNL     1      22.738   6.097   2.390  1.00  0.00     0.077 C 
ENDROOT
BRANCH   1   2
ATOM      2  C   UNL     1      23.957   5.274   2.143  1.00  0.00    -0.034 A 
ATOM      3  C   UNL     1      25.115   3.159   2.275  1.00  0.00    -0.025 A 
ATOM      4  C   UNL     1      23.975   3.928   2.505  1.00  0.00     0.013 A 
ATOM      5  C   UNL     1      26.237   3.735   1.681  1.00  0.00     0.008 A 
ATOM      6  C   UNL     1      26.219   5.082   1.318  1.00  0.00     0.001 A 
ATOM      7  C   UNL     1      25.080   5.852   1.549  1.00  0.00     0.005 A 
BRANCH   3   8
ATOM      8  C   UNL     1      25.134   1.735   2.659  1.00  0.00     0.010 C 
ATOM      9  C   UNL     1      26.155   0.878   2.425  1.00  0.00     0.029 C 
BRANCH   9  10
ATOM     10  C   UNL     1      26.180  -0.522   2.821  1.00  0.00     0.064 A 
ATOM     11  C   UNL     1      28.837  -4.354   3.735  1.00  0.00     0.043 A 
ATOM     12  C   UNL     1      28.720  -3.012   3.361  1.00  0.00     0.049 A 
ATOM     13  C   UNL     1      27.699  -5.097   4.020  1.00  0.00     0.021 A 
ATOM     14  C   UNL     1      27.480  -2.386   3.265  1.00  0.00     0.072 A 
ATOM     15  C   UNL     1      26.446  -4.496   3.933  1.00  0.00     0.012 A 
ATOM     16  N   UNL     1      27.403  -1.092   2.902  1.00  0.00    -0.248 NA
ATOM     17  C   UNL     1      26.329  -3.147   3.557  1.00  0.00     0.000 A 
ATOM     18  C   UNL     1      25.080  -2.517   3.461  1.00  0.00     0.012 A 
ATOM     19  C   UNL     1      24.998  -1.184   3.087  1.00  0.00     0.029 A 
ATOM     20  Cl  UNL     1      30.391  -5.086   3.840  1.00  0.00    -0.084 Cl
ENDBRANCH   9  10
ENDBRANCH   3   8
ENDBRANCH   1   2
BRANCH   1  21
ATOM     21  S   UNL     1      23.186   7.879   2.590  1.00  0.00    -0.153 SA
BRANCH  21  22
ATOM     22  C   UNL     1      22.853   8.003   4.358  1.00  0.00     0.077 C 
BRANCH  22  23
ATOM     23  C   UNL     1      22.712   9.430   4.768  1.00  0.00    -0.010 C 
ATOM     24  C   UNL     1      21.425  10.130   4.443  1.00  0.00     0.009 C 
ATOM     25  C   UNL     1      22.676  10.471   3.687  1.00  0.00     0.009 C 
BRANCH  23  26
ATOM     26  C   UNL     1      23.391   9.777   6.046  1.00  0.00     0.130 C 
BRANCH  26  27
ATOM     27  C   UNL     1      22.437  10.160   7.151  1.00  0.00     0.303 C 
ATOM     28  O   UNL     1      21.937   9.394   7.962  1.00  0.00    -0.252 OA
BRANCH  27  29
ATOM     29  O   UNL     1      22.201  11.496   7.130  1.00  0.00    -0.481 OA
ATOM     30  H   UNL     1      22.982  12.001   6.820  1.00  0.00     0.296 HD
ENDBRANCH  27  29
ENDBRANCH  26  27
ENDBRANCH  23  26
ENDBRANCH  22  23
ENDBRANCH  21  22
ENDBRANCH   1  21
BRANCH   1  31
ATOM     31  C   UNL     1      21.852   5.676   3.597  1.00  0.00     0.024 C 
BRANCH  31  32
ATOM     32  C   UNL     1      20.385   5.390   3.226  1.00  0.00     0.037 C 
BRANCH  32  33
ATOM     33  C   UNL     1      20.062   3.950   2.924  1.00  0.00    -0.042 A 
ATOM     34  C   UNL     1      19.192   3.612   1.887  1.00  0.00    -0.014 A 
ATOM     35  C   UNL     1      20.648   2.948   3.697  1.00  0.00     0.004 A 
ATOM     36  C   UNL     1      18.907   2.271   1.626  1.00  0.00     0.007 A 
ATOM     37  C   UNL     1      20.363   1.607   3.435  1.00  0.00     0.000 A 
ATOM     38  C   UNL     1      19.493   1.270   2.399  1.00  0.00     0.000 A 
BRANCH  34  39
ATOM     39  C   UNL     1      18.553   4.667   1.046  1.00  0.00     0.084 C 
ATOM     40  C   UNL     1      17.558   4.137  -0.017  1.00  0.00     0.047 C 
ATOM     41  C   UNL     1      19.625   5.528   0.342  1.00  0.00     0.047 C 
BRANCH  39  42
ATOM     42  O   UNL     1      17.772   5.563   1.869  1.00  0.00    -0.386 OA
ATOM     43  H   UNL     1      16.949   5.774   1.394  1.00  0.00     0.211 HD
ENDBRANCH  39  42
ENDBRANCH  34  39
ENDBRANCH  32  33
ENDBRANCH  31  32
ENDBRANCH   1  31
TORSDOF 14
ENDMDL
