REMARK SMILES COc1ccc2cc([C@H](C)C(=O)O)ccc2c1
REMARK SMILES IDX 9 1 10 2 8 3 3 4 17 5 4 6 16 7 5 8 6 9 15 10 7 11 14 12 2 13
REMARK SMILES IDX 1 14 11 15 12 16 13 17
REMARK H PARENT 13 18
ROOT
ATOM      1  C   UNL     1       3.142  -0.400   0.384  1.00  0.00     0.126 C 
ATOM      2  C   UNL     1       3.546  -0.003   1.818  1.00  0.00     0.025 C 
ENDROOT
BRANCH   1   3
ATOM      3  C   UNL     1       1.673  -0.583   0.204  1.00  0.00    -0.033 A 
ATOM      4  C   UNL     1      -3.347  -0.013  -0.090  1.00  0.00     0.119 A 
ATOM      5  C   UNL     1      -2.480  -1.085  -0.301  1.00  0.00     0.055 A 
ATOM      6  C   UNL     1      -2.843   1.227   0.289  1.00  0.00     0.047 A 
ATOM      7  C   UNL     1      -1.094  -0.929  -0.136  1.00  0.00    -0.015 A 
ATOM      8  C   UNL     1      -1.469   1.400   0.458  1.00  0.00     0.012 A 
ATOM      9  C   UNL     1      -0.581   0.332   0.250  1.00  0.00    -0.018 A 
ATOM     10  C   UNL     1      -0.206  -1.997  -0.344  1.00  0.00     0.009 A 
ATOM     11  C   UNL     1       0.805   0.489   0.415  1.00  0.00     0.013 A 
ATOM     12  C   UNL     1       1.168  -1.824  -0.175  1.00  0.00     0.005 A 
BRANCH   4  13
ATOM     13  O   UNL     1      -4.688  -0.181  -0.253  1.00  0.00    -0.497 OA
ATOM     14  C   UNL     1      -5.518   0.955  -0.018  1.00  0.00     0.278 C 
ENDBRANCH   4  13
ENDBRANCH   1   3
BRANCH   1  15
ATOM     15  C   UNL     1       3.733   0.615  -0.600  1.00  0.00     0.310 C 
ATOM     16  O   UNL     1       3.080   1.233  -1.431  1.00  0.00    -0.252 OA
BRANCH  15  17
ATOM     17  O   UNL     1       5.078   0.763  -0.470  1.00  0.00    -0.481 OA
ATOM     18  H   UNL     1       5.438   1.413  -1.111  1.00  0.00     0.296 HD
ENDBRANCH  15  17
ENDBRANCH   1  15
TORSDOF 4
