MODEL 1
REMARK VINA RESULT:      -5.1      0.000      0.000
REMARK SMILES NC(=O)c1cccnc1
REMARK SMILES IDX 3 1 1 2 2 3 4 6 5 7 9 8 6 9 8 10 7 11
REMARK H PARENT 1 4 1 5
ROOT
ATOM      1  O   UNL     1      16.411   0.253  18.834  1.00  0.00    -0.269 OA
ATOM      2  N   UNL     1      17.188  -1.775  18.096  1.00  0.00    -0.366 N 
ATOM      3  C   UNL     1      16.770  -0.464  17.881  1.00  0.00     0.250 C 
ATOM      4  H   UNL     1      17.489  -2.421  17.378  1.00  0.00     0.159 HD
ATOM      5  H   UNL     1      17.205  -2.145  19.041  1.00  0.00     0.159 HD
ENDROOT
BRANCH   3   6
ATOM      6  C   UNL     1      16.749   0.025  16.514  1.00  0.00     0.057 A 
ATOM      7  C   UNL     1      17.472   1.154  16.145  1.00  0.00     0.017 A 
ATOM      8  C   UNL     1      16.008  -0.619  15.535  1.00  0.00     0.124 A 
ATOM      9  C   UNL     1      17.433   1.599  14.829  1.00  0.00     0.021 A 
ATOM     10  N   UNL     1      15.946  -0.216  14.247  1.00  0.00    -0.264 NA
ATOM     11  C   UNL     1      16.661   0.886  13.926  1.00  0.00     0.111 A 
ENDBRANCH   3   6
TORSDOF 1
ENDMDL
MODEL 2
REMARK VINA RESULT:      -5.0      1.985      2.337
REMARK SMILES NC(=O)c1cccnc1
REMARK SMILES IDX 3 1 1 2 2 3 4 6 5 7 9 8 6 9 8 10 7 11
REMARK H PARENT 1 4 1 5
ROOT
ATOM      1  O   UNL     1      16.737  -3.351  16.360  1.00  0.00    -0.269 OA
ATOM      2  N   UNL     1      17.220  -2.204  18.286  1.00  0.00    -0.366 N 
ATOM      3  C   UNL     1      16.959  -2.261  16.920  1.00  0.00     0.250 C 
ATOM      4  H   UNL     1      17.414  -1.363  18.814  1.00  0.00     0.159 HD
ATOM      5  H   UNL     1      17.222  -3.062  18.830  1.00  0.00     0.159 HD
ENDROOT
BRANCH   3   6
ATOM      6  C   UNL     1      16.975  -1.015  16.174  1.00  0.00     0.057 A 
ATOM      7  C   UNL     1      16.280  -0.887  14.977  1.00  0.00     0.017 A 
ATOM      8  C   UNL     1      17.682   0.084  16.634  1.00  0.00     0.124 A 
ATOM      9  C   UNL     1      16.314   0.319  14.285  1.00  0.00     0.021 A 
ATOM     10  N   UNL     1      17.738   1.271  15.991  1.00  0.00    -0.264 NA
ATOM     11  C   UNL     1      17.051   1.358  14.829  1.00  0.00     0.111 A 
ENDBRANCH   3   6
TORSDOF 1
ENDMDL
MODEL 3
REMARK VINA RESULT:      -4.9      2.512      3.023
REMARK SMILES NC(=O)c1cccnc1
REMARK SMILES IDX 3 1 1 2 2 3 4 6 5 7 9 8 6 9 8 10 7 11
REMARK H PARENT 1 4 1 5
ROOT
ATOM      1  O   UNL     1      16.202   0.187  17.364  1.00  0.00    -0.269 OA
ATOM      2  N   UNL     1      17.442  -1.636  17.995  1.00  0.00    -0.366 N 
ATOM      3  C   UNL     1      17.298  -0.404  17.362  1.00  0.00     0.250 C 
ATOM      4  H   UNL     1      18.293  -2.181  18.035  1.00  0.00     0.159 HD
ATOM      5  H   UNL     1      16.644  -2.051  18.467  1.00  0.00     0.159 HD
ENDROOT
BRANCH   3   6
ATOM      6  C   UNL     1      18.459   0.152  16.689  1.00  0.00     0.057 A 
ATOM      7  C   UNL     1      18.868  -0.328  15.451  1.00  0.00     0.017 A 
ATOM      8  C   UNL     1      19.192   1.179  17.262  1.00  0.00     0.124 A 
ATOM      9  C   UNL     1      19.983   0.224  14.831  1.00  0.00     0.021 A 
ATOM     10  N   UNL     1      20.281   1.740  16.690  1.00  0.00    -0.264 NA
ATOM     11  C   UNL     1      20.649   1.247  15.487  1.00  0.00     0.111 A 
ENDBRANCH   3   6
TORSDOF 1
ENDMDL
