MODEL 1
REMARK VINA RESULT:      -4.5      0.000      0.000
REMARK SMILES CCCC[C@H]1C(=O)N(c2ccccc2)N(c2ccc(O)cc2)C1=O
REMARK SMILES IDX 24 1 7 2 15 3 8 4 5 5 23 6 6 7 16 8 17 9 22 10 18 11 21 12
REMARK SMILES IDX 19 13 20 14 4 16 3 17 2 18 1 19 9 20 10 21 14 22 11 23 13 24
REMARK SMILES IDX 12 25
REMARK H PARENT 20 15
ROOT
ATOM      1  O   UNL     1     -28.913   9.570 -51.301  1.00  0.00    -0.272 OA
ATOM      2  O   UNL     1     -28.576   7.393 -55.472  1.00  0.00    -0.272 OA
ATOM      3  N   UNL     1     -27.287   8.142 -52.293  1.00  0.00    -0.213 N 
ATOM      4  N   UNL     1     -27.241   7.403 -53.501  1.00  0.00    -0.213 N 
ATOM      5  C   UNL     1     -29.200   8.662 -53.517  1.00  0.00     0.172 C 
ATOM      6  C   UNL     1     -28.496   8.849 -52.195  1.00  0.00     0.258 C 
ATOM      7  C   UNL     1     -28.305   7.766 -54.340  1.00  0.00     0.258 C 
ENDROOT
BRANCH   3   8
ATOM      8  C   UNL     1     -26.138   8.484 -51.516  1.00  0.00     0.067 A 
ATOM      9  C   UNL     1     -25.160   9.328 -52.046  1.00  0.00     0.032 A 
ATOM     10  C   UNL     1     -25.990   7.975 -50.224  1.00  0.00     0.032 A 
ATOM     11  C   UNL     1     -24.037   9.660 -51.288  1.00  0.00     0.048 A 
ATOM     12  C   UNL     1     -24.868   8.307 -49.466  1.00  0.00     0.048 A 
ATOM     13  C   UNL     1     -23.891   9.150 -49.997  1.00  0.00     0.115 A 
BRANCH  13  14
ATOM     14  O   UNL     1     -22.797   9.476 -49.257  1.00  0.00    -0.508 OA
ATOM     15  H   UNL     1     -22.968   9.252 -48.325  1.00  0.00     0.293 HD
ENDBRANCH  13  14
ENDBRANCH   3   8
BRANCH   5  16
ATOM     16  C   UNL     1     -29.436   9.989 -54.216  1.00  0.00     0.024 C 
BRANCH  16  17
ATOM     17  C   UNL     1     -30.912  10.383 -54.186  1.00  0.00     0.001 C 
BRANCH  17  18
ATOM     18  C   UNL     1     -31.767   9.398 -54.983  1.00  0.00    -0.003 C 
ATOM     19  C   UNL     1     -33.176   9.301 -54.421  1.00  0.00     0.004 C 
ENDBRANCH  17  18
ENDBRANCH  16  17
ENDBRANCH   5  16
BRANCH   4  20
ATOM     20  C   UNL     1     -26.505   6.192 -53.674  1.00  0.00     0.067 A 
ATOM     21  C   UNL     1     -25.235   6.221 -54.256  1.00  0.00     0.028 A 
ATOM     22  C   UNL     1     -27.051   4.974 -53.262  1.00  0.00     0.028 A 
ATOM     23  C   UNL     1     -24.516   5.038 -54.425  1.00  0.00     0.002 A 
ATOM     24  C   UNL     1     -26.331   3.792 -53.431  1.00  0.00     0.002 A 
ATOM     25  C   UNL     1     -25.064   3.824 -54.013  1.00  0.00     0.000 A 
ENDBRANCH   4  20
TORSDOF 6
ENDMDL
MODEL 2
REMARK VINA RESULT:      -4.3      1.536      2.397
REMARK SMILES CCCC[C@H]1C(=O)N(c2ccccc2)N(c2ccc(O)cc2)C1=O
REMARK SMILES IDX 24 1 7 2 15 3 8 4 5 5 23 6 6 7 16 8 17 9 22 10 18 11 21 12
REMARK SMILES IDX 19 13 20 14 4 16 3 17 2 18 1 19 9 20 10 21 14 22 11 23 13 24
REMARK SMILES IDX 12 25
REMARK H PARENT 20 15
ROOT
ATOM      1  O   UNL     1     -28.866   9.560 -52.707  1.00  0.00    -0.272 OA
ATOM      2  O   UNL     1     -27.756   6.898 -56.439  1.00  0.00    -0.272 OA
ATOM      3  N   UNL     1     -27.246   7.862 -53.102  1.00  0.00    -0.213 N 
ATOM      4  N   UNL     1     -26.988   6.989 -54.188  1.00  0.00    -0.213 N 
ATOM      5  C   UNL     1     -28.689   8.441 -54.837  1.00  0.00     0.172 C 
ATOM      6  C   UNL     1     -28.332   8.701 -53.393  1.00  0.00     0.258 C 
ATOM      7  C   UNL     1     -27.740   7.366 -55.311  1.00  0.00     0.258 C 
ENDROOT
BRANCH   3   8
ATOM      8  C   UNL     1     -26.302   8.165 -52.074  1.00  0.00     0.067 A 
ATOM      9  C   UNL     1     -25.140   8.877 -52.377  1.00  0.00     0.032 A 
ATOM     10  C   UNL     1     -26.539   7.750 -50.762  1.00  0.00     0.032 A 
ATOM     11  C   UNL     1     -24.217   9.171 -51.373  1.00  0.00     0.048 A 
ATOM     12  C   UNL     1     -25.617   8.044 -49.758  1.00  0.00     0.048 A 
ATOM     13  C   UNL     1     -24.455   8.755 -50.063  1.00  0.00     0.115 A 
BRANCH  13  14
ATOM     14  O   UNL     1     -23.557   9.044 -49.083  1.00  0.00    -0.508 OA
ATOM     15  H   UNL     1     -22.678   9.159 -49.484  1.00  0.00     0.293 HD
ENDBRANCH  13  14
ENDBRANCH   3   8
BRANCH   5  16
ATOM     16  C   UNL     1     -28.557   9.697 -55.679  1.00  0.00     0.024 C 
BRANCH  16  17
ATOM     17  C   UNL     1     -27.135  10.255 -55.631  1.00  0.00     0.001 C 
BRANCH  17  18
ATOM     18  C   UNL     1     -27.132  11.737 -55.258  1.00  0.00    -0.003 C 
ATOM     19  C   UNL     1     -26.493  11.967 -53.897  1.00  0.00     0.004 C 
ENDBRANCH  17  18
ENDBRANCH  16  17
ENDBRANCH   5  16
BRANCH   4  20
ATOM     20  C   UNL     1     -26.401   5.694 -54.056  1.00  0.00     0.067 A 
ATOM     21  C   UNL     1     -27.132   4.648 -53.488  1.00  0.00     0.028 A 
ATOM     22  C   UNL     1     -25.095   5.468 -54.496  1.00  0.00     0.028 A 
ATOM     23  C   UNL     1     -26.558   3.383 -53.360  1.00  0.00     0.002 A 
ATOM     24  C   UNL     1     -24.522   4.204 -54.368  1.00  0.00     0.002 A 
ATOM     25  C   UNL     1     -25.254   3.160 -53.800  1.00  0.00     0.000 A 
ENDBRANCH   4  20
TORSDOF 6
ENDMDL
MODEL 3
REMARK VINA RESULT:      -4.3      2.429      5.375
REMARK SMILES CCCC[C@H]1C(=O)N(c2ccccc2)N(c2ccc(O)cc2)C1=O
REMARK SMILES IDX 24 1 7 2 15 3 8 4 5 5 23 6 6 7 16 8 17 9 22 10 18 11 21 12
REMARK SMILES IDX 19 13 20 14 4 16 3 17 2 18 1 19 9 20 10 21 14 22 11 23 13 24
REMARK SMILES IDX 12 25
REMARK H PARENT 20 15
ROOT
ATOM      1  O   UNL     1     -25.520   7.905 -53.568  1.00  0.00    -0.272 OA
ATOM      2  O   UNL     1     -29.774   7.723 -51.539  1.00  0.00    -0.272 OA
ATOM      3  N   UNL     1     -26.509   9.002 -51.701  1.00  0.00    -0.213 N 
ATOM      4  N   UNL     1     -27.818   9.027 -51.162  1.00  0.00    -0.213 N 
ATOM      5  C   UNL     1     -27.802   7.486 -52.908  1.00  0.00     0.172 C 
ATOM      6  C   UNL     1     -26.455   8.163 -52.825  1.00  0.00     0.258 C 
ATOM      7  C   UNL     1     -28.617   8.043 -51.765  1.00  0.00     0.258 C 
ENDROOT
BRANCH   3   8
ATOM      8  C   UNL     1     -25.337   9.390 -50.982  1.00  0.00     0.067 A 
ATOM      9  C   UNL     1     -24.605  10.508 -51.387  1.00  0.00     0.032 A 
ATOM     10  C   UNL     1     -24.920   8.652 -49.872  1.00  0.00     0.032 A 
ATOM     11  C   UNL     1     -23.459  10.885 -50.686  1.00  0.00     0.048 A 
ATOM     12  C   UNL     1     -23.775   9.030 -49.171  1.00  0.00     0.048 A 
ATOM     13  C   UNL     1     -23.044  10.147 -49.578  1.00  0.00     0.115 A 
BRANCH  13  14
ATOM     14  O   UNL     1     -21.929  10.517 -48.892  1.00  0.00    -0.508 OA
ATOM     15  H   UNL     1     -21.445  11.182 -49.413  1.00  0.00     0.293 HD
ENDBRANCH  13  14
ENDBRANCH   3   8
BRANCH   5  16
ATOM     16  C   UNL     1     -27.674   5.977 -52.803  1.00  0.00     0.024 C 
BRANCH  16  17
ATOM     17  C   UNL     1     -27.965   5.296 -54.140  1.00  0.00     0.001 C 
BRANCH  17  18
ATOM     18  C   UNL     1     -27.793   3.780 -54.041  1.00  0.00    -0.003 C 
ATOM     19  C   UNL     1     -26.511   3.412 -53.312  1.00  0.00     0.004 C 
ENDBRANCH  17  18
ENDBRANCH  16  17
ENDBRANCH   5  16
BRANCH   4  20
ATOM     20  C   UNL     1     -28.371  10.130 -50.443  1.00  0.00     0.067 A 
ATOM     21  C   UNL     1     -28.820   9.957 -49.132  1.00  0.00     0.028 A 
ATOM     22  C   UNL     1     -28.463  11.386 -51.048  1.00  0.00     0.028 A 
ATOM     23  C   UNL     1     -29.359  11.035 -48.430  1.00  0.00     0.002 A 
ATOM     24  C   UNL     1     -29.002  12.463 -50.346  1.00  0.00     0.002 A 
ATOM     25  C   UNL     1     -29.451  12.287 -49.036  1.00  0.00     0.000 A 
ENDBRANCH   4  20
TORSDOF 6
ENDMDL
