MODEL 1
REMARK VINA RESULT:      -6.2      0.000      0.000
REMARK SMILES CC[C@@H]1C(=O)OC[C@@H]1Cc1cncn1C
REMARK SMILES IDX 6 1 5 2 8 3 3 4 7 5 4 6 9 7 10 8 14 9 11 10 13 11 12 12
REMARK SMILES IDX 15 13 2 14 1 15
REMARK H PARENT
ROOT
ATOM      1  O   UNL     1      18.601   0.554  17.403  1.00  0.00    -0.465 OA
ATOM      2  O   UNL     1      16.327   0.323  17.236  1.00  0.00    -0.252 OA
ATOM      3  C   UNL     1      19.157   0.455  15.140  1.00  0.00     0.047 C 
ATOM      4  C   UNL     1      17.662   0.733  15.246  1.00  0.00     0.106 C 
ATOM      5  C   UNL     1      19.668   0.869  16.504  1.00  0.00     0.237 C 
ATOM      6  C   UNL     1      17.419   0.502  16.717  1.00  0.00     0.309 C 
ENDROOT
BRANCH   3   7
ATOM      7  C   UNL     1      19.899   1.121  13.995  1.00  0.00     0.063 C 
BRANCH   7   8
ATOM      8  C   UNL     1      19.703   0.375  12.706  1.00  0.00     0.037 A 
ATOM      9  N   UNL     1      19.617   1.000  11.512  1.00  0.00    -0.338 N 
ATOM     10  C   UNL     1      19.578  -0.953  12.464  1.00  0.00     0.134 A 
ATOM     11  C   UNL     1      19.441   0.020  10.575  1.00  0.00     0.199 A 
ATOM     12  N   UNL     1      19.414  -1.176  11.119  1.00  0.00    -0.245 NA
ATOM     13  C   UNL     1      19.692   2.417  11.244  1.00  0.00     0.151 C 
ENDBRANCH   7   8
ENDBRANCH   3   7
BRANCH   4  14
ATOM     14  C   UNL     1      17.213   2.137  14.868  1.00  0.00     0.012 C 
ATOM     15  C   UNL     1      16.513   2.159  13.519  1.00  0.00     0.005 C 
ENDBRANCH   4  14
TORSDOF 3
ENDMDL
MODEL 2
REMARK VINA RESULT:      -6.1      1.338      2.650
REMARK SMILES CC[C@@H]1C(=O)OC[C@@H]1Cc1cncn1C
REMARK SMILES IDX 6 1 5 2 8 3 3 4 7 5 4 6 9 7 10 8 14 9 11 10 13 11 12 12
REMARK SMILES IDX 15 13 2 14 1 15
REMARK H PARENT
ROOT
ATOM      1  O   UNL     1      16.668  -0.892  16.339  1.00  0.00    -0.465 OA
ATOM      2  O   UNL     1      17.272   0.735  17.834  1.00  0.00    -0.252 OA
ATOM      3  C   UNL     1      17.814  -0.121  14.458  1.00  0.00     0.047 C 
ATOM      4  C   UNL     1      18.395   0.577  15.684  1.00  0.00     0.106 C 
ATOM      5  C   UNL     1      17.134  -1.333  15.059  1.00  0.00     0.237 C 
ATOM      6  C   UNL     1      17.398   0.189  16.748  1.00  0.00     0.309 C 
ENDROOT
BRANCH   3   7
ATOM      7  C   UNL     1      18.783  -0.470  13.343  1.00  0.00     0.063 C 
BRANCH   7   8
ATOM      8  C   UNL     1      18.957   0.678  12.389  1.00  0.00     0.037 A 
ATOM      9  N   UNL     1      19.596   0.547  11.206  1.00  0.00    -0.338 N 
ATOM     10  C   UNL     1      18.559   1.970  12.479  1.00  0.00     0.134 A 
ATOM     11  C   UNL     1      19.564   1.778  10.613  1.00  0.00     0.199 A 
ATOM     12  N   UNL     1      18.941   2.663  11.358  1.00  0.00    -0.245 NA
ATOM     13  C   UNL     1      20.202  -0.640  10.651  1.00  0.00     0.151 C 
ENDBRANCH   7   8
ENDBRANCH   3   7
BRANCH   4  14
ATOM     14  C   UNL     1      19.790   0.138  16.106  1.00  0.00     0.012 C 
ATOM     15  C   UNL     1      20.806   1.255  15.933  1.00  0.00     0.005 C 
ENDBRANCH   4  14
TORSDOF 3
ENDMDL
MODEL 3
REMARK VINA RESULT:      -6.1      3.344      4.930
REMARK SMILES CC[C@@H]1C(=O)OC[C@@H]1Cc1cncn1C
REMARK SMILES IDX 6 1 5 2 8 3 3 4 7 5 4 6 9 7 10 8 14 9 11 10 13 11 12 12
REMARK SMILES IDX 15 13 2 14 1 15
REMARK H PARENT
ROOT
ATOM      1  O   UNL     1      19.913   0.565  10.848  1.00  0.00    -0.465 OA
ATOM      2  O   UNL     1      19.483   2.814  10.900  1.00  0.00    -0.252 OA
ATOM      3  C   UNL     1      19.538   0.057  13.094  1.00  0.00     0.047 C 
ATOM      4  C   UNL     1      18.916   1.420  12.808  1.00  0.00     0.106 C 
ATOM      5  C   UNL     1      19.659  -0.548  11.712  1.00  0.00     0.237 C 
ATOM      6  C   UNL     1      19.464   1.716  11.434  1.00  0.00     0.309 C 
ENDROOT
BRANCH   3   7
ATOM      7  C   UNL     1      18.807  -0.838  14.078  1.00  0.00     0.063 C 
BRANCH   7   8
ATOM      8  C   UNL     1      18.696  -0.192  15.430  1.00  0.00     0.037 A 
ATOM      9  N   UNL     1      17.519  -0.068  16.080  1.00  0.00    -0.338 N 
ATOM     10  C   UNL     1      19.645   0.358  16.227  1.00  0.00     0.134 A 
ATOM     11  C   UNL     1      17.796   0.560  17.263  1.00  0.00     0.199 A 
ATOM     12  N   UNL     1      19.076   0.831  17.383  1.00  0.00    -0.245 NA
ATOM     13  C   UNL     1      16.213  -0.501  15.642  1.00  0.00     0.151 C 
ENDBRANCH   7   8
ENDBRANCH   3   7
BRANCH   4  14
ATOM     14  C   UNL     1      17.395   1.468  12.773  1.00  0.00     0.012 C 
ATOM     15  C   UNL     1      16.860   2.765  13.356  1.00  0.00     0.005 C 
ENDBRANCH   4  14
TORSDOF 3
ENDMDL
