MODEL 1
REMARK VINA RESULT:      -5.4      0.000      0.000
REMARK SMILES COc1ccc2nc([S@@](=O)Cc3ncc(C)c(OC)c3C)[nH]c2c1
REMARK SMILES IDX 9 1 10 2 11 3 12 4 13 5 20 6 14 7 17 8 15 9 21 10 16 11
REMARK SMILES IDX 18 12 19 13 8 14 22 15 7 16 23 17 6 18 24 19 5 20 3 21 4 22
REMARK SMILES IDX 2 24 1 25
REMARK H PARENT 22 23
ROOT
ATOM      1  S   UNL     1     -28.722   7.624 -52.487  1.00  0.00     0.095 S 
ATOM      2  O   UNL     1     -29.814   7.201 -51.524  1.00  0.00    -0.251 OA
ENDROOT
BRANCH   1   3
ATOM      3  C   UNL     1     -27.307   8.163 -51.485  1.00  0.00     0.170 C 
BRANCH   3   4
ATOM      4  C   UNL     1     -27.580   9.470 -50.796  1.00  0.00     0.060 A 
ATOM      5  N   UNL     1     -28.520  10.243 -51.376  1.00  0.00    -0.259 NA
ATOM      6  C   UNL     1     -26.887   9.804 -49.650  1.00  0.00     0.014 A 
ATOM      7  C   UNL     1     -28.778  11.422 -50.767  1.00  0.00     0.118 A 
ATOM      8  C   UNL     1     -27.179  11.026 -49.052  1.00  0.00     0.128 A 
ATOM      9  C   UNL     1     -28.142  11.856 -49.615  1.00  0.00     0.010 A 
ATOM     10  C   UNL     1     -25.858   8.896 -49.064  1.00  0.00     0.050 C 
ATOM     11  C   UNL     1     -28.492  13.172 -49.014  1.00  0.00     0.050 C 
BRANCH   8  12
ATOM     12  O   UNL     1     -26.527  11.408 -47.917  1.00  0.00    -0.496 OA
ATOM     13  C   UNL     1     -27.114  11.029 -46.674  1.00  0.00     0.278 C 
ENDBRANCH   8  12
ENDBRANCH   3   4
ENDBRANCH   1   3
BRANCH   1  14
ATOM     14  C   UNL     1     -28.032   6.162 -53.252  1.00  0.00     0.197 A 
ATOM     15  N   UNL     1     -28.434   5.667 -54.461  1.00  0.00    -0.331 N 
ATOM     16  N   UNL     1     -27.079   5.434 -52.714  1.00  0.00    -0.220 NA
ATOM     17  C   UNL     1     -27.692   4.544 -54.721  1.00  0.00     0.070 A 
ATOM     18  C   UNL     1     -26.853   4.420 -53.617  1.00  0.00     0.090 A 
ATOM     19  C   UNL     1     -27.681   3.654 -55.796  1.00  0.00     0.074 A 
ATOM     20  C   UNL     1     -25.944   3.350 -53.564  1.00  0.00     0.034 A 
ATOM     21  C   UNL     1     -26.770   2.594 -55.727  1.00  0.00     0.121 A 
ATOM     22  C   UNL     1     -25.916   2.443 -54.632  1.00  0.00     0.049 A 
ATOM     23  H   UNL     1     -29.152   6.056 -55.057  1.00  0.00     0.169 HD
BRANCH  21  24
ATOM     24  O   UNL     1     -26.715   1.693 -56.748  1.00  0.00    -0.497 OA
ATOM     25  C   UNL     1     -25.811   0.601 -56.598  1.00  0.00     0.278 C 
ENDBRANCH  21  24
ENDBRANCH   1  14
TORSDOF 5
ENDMDL
MODEL 2
REMARK VINA RESULT:      -5.3     17.009     20.318
REMARK SMILES COc1ccc2nc([S@@](=O)Cc3ncc(C)c(OC)c3C)[nH]c2c1
REMARK SMILES IDX 9 1 10 2 11 3 12 4 13 5 20 6 14 7 17 8 15 9 21 10 16 11
REMARK SMILES IDX 18 12 19 13 8 14 22 15 7 16 23 17 6 18 24 19 5 20 3 21 4 22
REMARK SMILES IDX 2 24 1 25
REMARK H PARENT 22 23
ROOT
ATOM      1  S   UNL     1     -11.446   4.422 -41.695  1.00  0.00     0.095 S 
ATOM      2  O   UNL     1     -10.164   4.449 -40.885  1.00  0.00    -0.251 OA
ENDROOT
BRANCH   1   3
ATOM      3  C   UNL     1     -12.229   2.810 -41.399  1.00  0.00     0.170 C 
BRANCH   3   4
ATOM      4  C   UNL     1     -11.965   1.850 -42.524  1.00  0.00     0.060 A 
ATOM      5  N   UNL     1     -12.690   2.057 -43.642  1.00  0.00    -0.259 NA
ATOM      6  C   UNL     1     -11.032   0.844 -42.368  1.00  0.00     0.014 A 
ATOM      7  C   UNL     1     -12.463   1.201 -44.663  1.00  0.00     0.118 A 
ATOM      8  C   UNL     1     -10.826  -0.017 -43.441  1.00  0.00     0.128 A 
ATOM      9  C   UNL     1     -11.551   0.159 -44.614  1.00  0.00     0.010 A 
ATOM     10  C   UNL     1     -10.266   0.677 -41.099  1.00  0.00     0.050 C 
ATOM     11  C   UNL     1     -11.368  -0.735 -45.791  1.00  0.00     0.050 C 
BRANCH   8  12
ATOM     12  O   UNL     1      -9.916  -1.028 -43.345  1.00  0.00    -0.496 OA
ATOM     13  C   UNL     1      -8.645  -0.815 -43.955  1.00  0.00     0.278 C 
ENDBRANCH   8  12
ENDBRANCH   3   4
ENDBRANCH   1   3
BRANCH   1  14
ATOM     14  C   UNL     1     -12.640   5.503 -40.918  1.00  0.00     0.197 A 
ATOM     15  N   UNL     1     -13.196   6.594 -41.526  1.00  0.00    -0.331 N 
ATOM     16  N   UNL     1     -13.084   5.344 -39.692  1.00  0.00    -0.220 NA
ATOM     17  C   UNL     1     -14.056   7.178 -40.632  1.00  0.00     0.070 A 
ATOM     18  C   UNL     1     -13.969   6.380 -39.495  1.00  0.00     0.090 A 
ATOM     19  C   UNL     1     -14.878   8.303 -40.718  1.00  0.00     0.074 A 
ATOM     20  C   UNL     1     -14.740   6.707 -38.368  1.00  0.00     0.034 A 
ATOM     21  C   UNL     1     -15.640   8.614 -39.586  1.00  0.00     0.121 A 
ATOM     22  C   UNL     1     -15.573   7.832 -38.430  1.00  0.00     0.049 A 
ATOM     23  H   UNL     1     -13.006   6.916 -42.466  1.00  0.00     0.169 HD
BRANCH  21  24
ATOM     24  O   UNL     1     -16.461   9.701 -39.613  1.00  0.00    -0.497 OA
ATOM     25  C   UNL     1     -16.569  10.400 -40.851  1.00  0.00     0.278 C 
ENDBRANCH  21  24
ENDBRANCH   1  14
TORSDOF 5
ENDMDL
MODEL 3
REMARK VINA RESULT:      -5.3      2.390      9.120
REMARK SMILES COc1ccc2nc([S@@](=O)Cc3ncc(C)c(OC)c3C)[nH]c2c1
REMARK SMILES IDX 9 1 10 2 11 3 12 4 13 5 20 6 14 7 17 8 15 9 21 10 16 11
REMARK SMILES IDX 18 12 19 13 8 14 22 15 7 16 23 17 6 18 24 19 5 20 3 21 4 22
REMARK SMILES IDX 2 24 1 25
REMARK H PARENT 22 23
ROOT
ATOM      1  S   UNL     1     -28.099   3.906 -54.794  1.00  0.00     0.095 S 
ATOM      2  O   UNL     1     -27.563   4.275 -56.164  1.00  0.00    -0.251 OA
ENDROOT
BRANCH   1   3
ATOM      3  C   UNL     1     -26.902   2.764 -54.044  1.00  0.00     0.170 C 
BRANCH   3   4
ATOM      4  C   UNL     1     -25.986   2.166 -55.073  1.00  0.00     0.060 A 
ATOM      5  N   UNL     1     -26.549   1.250 -55.886  1.00  0.00    -0.259 NA
ATOM      6  C   UNL     1     -24.665   2.566 -55.137  1.00  0.00     0.014 A 
ATOM      7  C   UNL     1     -25.737   0.704 -56.818  1.00  0.00     0.118 A 
ATOM      8  C   UNL     1     -23.860   1.981 -56.109  1.00  0.00     0.128 A 
ATOM      9  C   UNL     1     -24.399   1.031 -56.969  1.00  0.00     0.010 A 
ATOM     10  C   UNL     1     -24.111   3.588 -54.202  1.00  0.00     0.050 C 
ATOM     11  C   UNL     1     -23.579   0.377 -58.026  1.00  0.00     0.050 C 
BRANCH   8  12
ATOM     12  O   UNL     1     -22.549   2.338 -56.220  1.00  0.00    -0.496 OA
ATOM     13  C   UNL     1     -22.244   3.419 -57.098  1.00  0.00     0.278 C 
ENDBRANCH   8  12
ENDBRANCH   3   4
ENDBRANCH   1   3
BRANCH   1  14
ATOM     14  C   UNL     1     -27.918   5.315 -53.708  1.00  0.00     0.197 A 
ATOM     15  N   UNL     1     -28.941   6.154 -53.364  1.00  0.00    -0.331 N 
ATOM     16  N   UNL     1     -26.783   5.668 -53.148  1.00  0.00    -0.220 NA
ATOM     17  C   UNL     1     -28.432   7.113 -52.526  1.00  0.00     0.070 A 
ATOM     18  C   UNL     1     -27.084   6.788 -52.407  1.00  0.00     0.090 A 
ATOM     19  C   UNL     1     -29.018   8.204 -51.882  1.00  0.00     0.074 A 
ATOM     20  C   UNL     1     -26.256   7.588 -51.602  1.00  0.00     0.034 A 
ATOM     21  C   UNL     1     -28.179   8.989 -51.084  1.00  0.00     0.121 A 
ATOM     22  C   UNL     1     -26.822   8.689 -50.945  1.00  0.00     0.049 A 
ATOM     23  H   UNL     1     -29.902   6.083 -53.672  1.00  0.00     0.169 HD
BRANCH  21  24
ATOM     24  O   UNL     1     -28.697  10.067 -50.431  1.00  0.00    -0.497 OA
ATOM     25  C   UNL     1     -28.754  11.295 -51.154  1.00  0.00     0.278 C 
ENDBRANCH  21  24
ENDBRANCH   1  14
TORSDOF 5
ENDMDL
