MODEL 1
REMARK VINA RESULT:      -6.0      0.000      0.000
REMARK SMILES CCC(C)(C)C(=O)O[C@H]1C[C@@H](C)C=C2C=C[C@H](C)[C@H](CC[C@@H]3C[C@@H](O)CC(=O)O3)[C@H]21
REMARK SMILES IDX 30 1 19 2 9 3 17 4 14 5 10 6 11 7 13 8 16 9 15 10 18 11
REMARK SMILES IDX 12 12 8 13 6 14 7 15 3 16 4 17 5 18 2 19 1 20 20 21 21 22
REMARK SMILES IDX 22 23 29 24 23 25 27 26 24 27 28 28 26 29 25 30
REMARK H PARENT 25 31
ROOT
ATOM      1  C   UNL     1      26.778  -9.589  20.847  1.00  0.00     0.063 C 
ATOM      2  C   UNL     1      25.389 -10.160  20.434  1.00  0.00     0.007 C 
ATOM      3  C   UNL     1      27.048  -8.171  20.290  1.00  0.00     0.185 C 
ATOM      4  C   UNL     1      25.179 -11.594  21.003  1.00  0.00     0.012 C 
ATOM      5  C   UNL     1      26.958  -9.646  22.361  1.00  0.00    -0.045 C 
ATOM      6  C   UNL     1      28.330  -7.578  20.880  1.00  0.00     0.053 C 
ATOM      7  C   UNL     1      28.330  -7.525  22.418  1.00  0.00     0.012 C 
ATOM      8  C   UNL     1      27.652  -8.715  23.043  1.00  0.00    -0.020 C 
ATOM      9  C   UNL     1      25.559 -11.660  22.459  1.00  0.00    -0.023 C 
ATOM     10  C   UNL     1      26.350 -10.762  23.061  1.00  0.00    -0.000 C 
ATOM     11  C   UNL     1      25.924 -12.696  20.243  1.00  0.00     0.012 C 
ATOM     12  C   UNL     1      27.707  -6.231  22.951  1.00  0.00     0.012 C 
ENDROOT
BRANCH   3  13
ATOM     13  O   UNL     1      25.940  -7.315  20.554  1.00  0.00    -0.461 OA
BRANCH  13  14
ATOM     14  C   UNL     1      25.389  -6.693  19.465  1.00  0.00     0.311 C 
ATOM     15  O   UNL     1      25.886  -6.678  18.344  1.00  0.00    -0.252 OA
BRANCH  14  16
ATOM     16  C   UNL     1      24.067  -6.009  19.837  1.00  0.00     0.062 C 
ATOM     17  C   UNL     1      23.311  -6.874  20.861  1.00  0.00     0.023 C 
ATOM     18  C   UNL     1      23.203  -5.907  18.566  1.00  0.00     0.023 C 
BRANCH  16  19
ATOM     19  C   UNL     1      24.320  -4.588  20.397  1.00  0.00     0.015 C 
ATOM     20  C   UNL     1      24.270  -3.470  19.361  1.00  0.00     0.005 C 
ENDBRANCH  16  19
ENDBRANCH  14  16
ENDBRANCH  13  14
ENDBRANCH   3  13
BRANCH   2  21
ATOM     21  C   UNL     1      25.151 -10.111  18.921  1.00  0.00     0.009 C 
BRANCH  21  22
ATOM     22  C   UNL     1      23.670  -9.945  18.606  1.00  0.00     0.046 C 
BRANCH  22  23
ATOM     23  C   UNL     1      23.440  -9.823  17.105  1.00  0.00     0.179 C 
ATOM     24  O   UNL     1      23.989  -8.555  16.684  1.00  0.00    -0.462 OA
ATOM     25  C   UNL     1      24.054 -10.997  16.358  1.00  0.00     0.077 C 
ATOM     26  C   UNL     1      24.297  -8.284  15.395  1.00  0.00     0.308 C 
ATOM     27  C   UNL     1      23.935 -10.758  14.864  1.00  0.00     0.129 C 
ATOM     28  O   UNL     1      24.430  -7.127  15.003  1.00  0.00    -0.252 OA
ATOM     29  C   UNL     1      24.606  -9.452  14.489  1.00  0.00     0.154 C 
BRANCH  27  30
ATOM     30  O   UNL     1      22.567 -10.706  14.471  1.00  0.00    -0.392 OA
ATOM     31  H   UNL     1      22.536 -10.354  13.565  1.00  0.00     0.210 HD
ENDBRANCH  27  30
ENDBRANCH  22  23
ENDBRANCH  21  22
ENDBRANCH   2  21
TORSDOF 8
ENDMDL
MODEL 2
REMARK VINA RESULT:      -5.7     17.587     20.937
REMARK SMILES CCC(C)(C)C(=O)O[C@H]1C[C@@H](C)C=C2C=C[C@H](C)[C@H](CC[C@@H]3C[C@@H](O)CC(=O)O3)[C@H]21
REMARK SMILES IDX 30 1 19 2 9 3 17 4 14 5 10 6 11 7 13 8 16 9 15 10 18 11
REMARK SMILES IDX 12 12 8 13 6 14 7 15 3 16 4 17 5 18 2 19 1 20 20 21 21 22
REMARK SMILES IDX 22 23 29 24 23 25 27 26 24 27 28 28 26 29 25 30
REMARK H PARENT 25 31
ROOT
ATOM      1  C   UNL     1      21.652   3.975   1.757  1.00  0.00     0.063 C 
ATOM      2  C   UNL     1      22.945   3.417   2.421  1.00  0.00     0.007 C 
ATOM      3  C   UNL     1      20.513   2.934   1.661  1.00  0.00     0.185 C 
ATOM      4  C   UNL     1      24.064   4.499   2.474  1.00  0.00     0.012 C 
ATOM      5  C   UNL     1      21.194   5.252   2.456  1.00  0.00    -0.045 C 
ATOM      6  C   UNL     1      19.208   3.579   1.185  1.00  0.00     0.053 C 
ATOM      7  C   UNL     1      18.747   4.752   2.070  1.00  0.00     0.012 C 
ATOM      8  C   UNL     1      19.895   5.579   2.587  1.00  0.00    -0.020 C 
ATOM      9  C   UNL     1      23.526   5.810   2.983  1.00  0.00    -0.023 C 
ATOM     10  C   UNL     1      22.224   6.128   2.984  1.00  0.00    -0.000 C 
ATOM     11  C   UNL     1      24.780   4.738   1.140  1.00  0.00     0.012 C 
ATOM     12  C   UNL     1      17.874   4.286   3.238  1.00  0.00     0.012 C 
ENDROOT
BRANCH   3  13
ATOM     13  O   UNL     1      20.318   2.294   2.919  1.00  0.00    -0.461 OA
BRANCH  13  14
ATOM     14  C   UNL     1      20.080   0.945   2.876  1.00  0.00     0.311 C 
ATOM     15  O   UNL     1      20.701   0.149   2.181  1.00  0.00    -0.252 OA
BRANCH  14  16
ATOM     16  C   UNL     1      18.925   0.564   3.811  1.00  0.00     0.062 C 
ATOM     17  C   UNL     1      19.038  -0.924   4.185  1.00  0.00     0.023 C 
ATOM     18  C   UNL     1      17.602   0.766   3.049  1.00  0.00     0.023 C 
BRANCH  16  19
ATOM     19  C   UNL     1      18.925   1.453   5.079  1.00  0.00     0.015 C 
ATOM     20  C   UNL     1      18.670   0.708   6.385  1.00  0.00     0.005 C 
ENDBRANCH  16  19
ENDBRANCH  14  16
ENDBRANCH  13  14
ENDBRANCH   3  13
BRANCH   2  21
ATOM     21  C   UNL     1      23.440   2.123   1.765  1.00  0.00     0.009 C 
BRANCH  21  22
ATOM     22  C   UNL     1      24.018   1.170   2.803  1.00  0.00     0.046 C 
BRANCH  22  23
ATOM     23  C   UNL     1      25.529   1.049   2.655  1.00  0.00     0.179 C 
ATOM     24  O   UNL     1      25.960  -0.047   3.490  1.00  0.00    -0.462 OA
ATOM     25  C   UNL     1      25.924   0.857   1.198  1.00  0.00     0.077 C 
ATOM     26  C   UNL     1      27.150  -0.670   3.322  1.00  0.00     0.308 C 
ATOM     27  C   UNL     1      27.416   0.590   1.114  1.00  0.00     0.129 C 
ATOM     28  O   UNL     1      27.646  -1.344   4.221  1.00  0.00    -0.252 OA
ATOM     29  C   UNL     1      27.777  -0.622   1.949  1.00  0.00     0.154 C 
BRANCH  27  30
ATOM     30  O   UNL     1      28.155   1.714   1.585  1.00  0.00    -0.392 OA
ATOM     31  H   UNL     1      29.082   1.585   1.322  1.00  0.00     0.210 HD
ENDBRANCH  27  30
ENDBRANCH  22  23
ENDBRANCH  21  22
ENDBRANCH   2  21
TORSDOF 8
ENDMDL
MODEL 3
REMARK VINA RESULT:      -5.6     16.503     19.877
REMARK SMILES CCC(C)(C)C(=O)O[C@H]1C[C@@H](C)C=C2C=C[C@H](C)[C@H](CC[C@@H]3C[C@@H](O)CC(=O)O3)[C@H]21
REMARK SMILES IDX 30 1 19 2 9 3 17 4 14 5 10 6 11 7 13 8 16 9 15 10 18 11
REMARK SMILES IDX 12 12 8 13 6 14 7 15 3 16 4 17 5 18 2 19 1 20 20 21 21 22
REMARK SMILES IDX 22 23 29 24 23 25 27 26 24 27 28 28 26 29 25 30
REMARK H PARENT 25 31
ROOT
ATOM      1  C   UNL     1      28.136  -0.803   2.378  1.00  0.00     0.063 C 
ATOM      2  C   UNL     1      26.980  -0.253   1.490  1.00  0.00     0.007 C 
ATOM      3  C   UNL     1      27.655  -1.783   3.472  1.00  0.00     0.185 C 
ATOM      4  C   UNL     1      27.517   0.743   0.420  1.00  0.00     0.012 C 
ATOM      5  C   UNL     1      29.236  -1.414   1.515  1.00  0.00    -0.045 C 
ATOM      6  C   UNL     1      28.838  -2.443   4.186  1.00  0.00     0.053 C 
ATOM      7  C   UNL     1      29.794  -3.181   3.232  1.00  0.00     0.012 C 
ATOM      8  C   UNL     1      29.963  -2.474   1.913  1.00  0.00    -0.020 C 
ATOM      9  C   UNL     1      28.731   0.186  -0.277  1.00  0.00    -0.023 C 
ATOM     10  C   UNL     1      29.487  -0.800   0.224  1.00  0.00    -0.000 C 
ATOM     11  C   UNL     1      27.847   2.138   0.958  1.00  0.00     0.012 C 
ATOM     12  C   UNL     1      29.367  -4.632   2.995  1.00  0.00     0.012 C 
ENDROOT
BRANCH   3  13
ATOM     13  O   UNL     1      26.801  -2.776   2.910  1.00  0.00    -0.461 OA
BRANCH  13  14
ATOM     14  C   UNL     1      25.648  -3.037   3.602  1.00  0.00     0.311 C 
ATOM     15  O   UNL     1      25.473  -2.784   4.789  1.00  0.00    -0.252 OA
BRANCH  14  16
ATOM     16  C   UNL     1      24.603  -3.698   2.694  1.00  0.00     0.062 C 
ATOM     17  C   UNL     1      24.744  -5.229   2.778  1.00  0.00     0.023 C 
ATOM     18  C   UNL     1      24.888  -3.271   1.242  1.00  0.00     0.023 C 
BRANCH  16  19
ATOM     19  C   UNL     1      23.172  -3.255   3.085  1.00  0.00     0.015 C 
ATOM     20  C   UNL     1      22.382  -4.277   3.896  1.00  0.00     0.005 C 
ENDBRANCH  16  19
ENDBRANCH  14  16
ENDBRANCH  13  14
ENDBRANCH   3  13
BRANCH   2  21
ATOM     21  C   UNL     1      25.839   0.358   2.310  1.00  0.00     0.009 C 
BRANCH  21  22
ATOM     22  C   UNL     1      24.571   0.483   1.475  1.00  0.00     0.046 C 
BRANCH  22  23
ATOM     23  C   UNL     1      24.076   1.923   1.443  1.00  0.00     0.179 C 
ATOM     24  O   UNL     1      24.929   2.694   2.318  1.00  0.00    -0.462 OA
ATOM     25  C   UNL     1      24.061   2.467   0.023  1.00  0.00     0.077 C 
ATOM     26  C   UNL     1      25.021   4.042   2.246  1.00  0.00     0.308 C 
ATOM     27  C   UNL     1      23.710   3.944   0.055  1.00  0.00     0.129 C 
ATOM     28  O   UNL     1      25.462   4.699   3.186  1.00  0.00    -0.252 OA
ATOM     29  C   UNL     1      24.697   4.696   0.925  1.00  0.00     0.154 C 
BRANCH  27  30
ATOM     30  O   UNL     1      22.396   4.136   0.571  1.00  0.00    -0.392 OA
ATOM     31  H   UNL     1      21.778   4.097  -0.179  1.00  0.00     0.210 HD
ENDBRANCH  27  30
ENDBRANCH  22  23
ENDBRANCH  21  22
ENDBRANCH   2  21
TORSDOF 8
ENDMDL
