MODEL 1
REMARK VINA RESULT:      -6.1      0.000      0.000
REMARK SMILES Cn1c(=O)c2[nH]cnc2n(C)c1=O
REMARK SMILES IDX 4 1 13 2 10 3 2 4 6 5 8 6 9 7 5 8 3 9 12 10 11 11 1 12 7 13
REMARK H PARENT 6 14
ROOT
ATOM      1  O   UNL     1      20.159  -1.373  12.632  1.00  0.00    -0.267 OA
ATOM      2  O   UNL     1      16.532   0.475  14.973  1.00  0.00    -0.247 OA
ATOM      3  N   UNL     1      17.465   1.711  13.236  1.00  0.00    -0.279 N 
ATOM      4  N   UNL     1      18.340  -0.470  13.822  1.00  0.00    -0.261 N 
ATOM      5  N   UNL     1      20.111   1.136  11.014  1.00  0.00    -0.339 N 
ATOM      6  N   UNL     1      18.648   2.781  11.362  1.00  0.00    -0.219 NA
ATOM      7  C   UNL     1      18.438   1.759  12.247  1.00  0.00     0.167 A 
ATOM      8  C   UNL     1      19.325   0.734  12.056  1.00  0.00     0.149 A 
ATOM      9  C   UNL     1      19.353  -0.468  12.826  1.00  0.00     0.281 A 
ATOM     10  C   UNL     1      17.378   0.573  14.076  1.00  0.00     0.332 A 
ATOM     11  C   UNL     1      16.543   2.829  13.402  1.00  0.00     0.157 C 
ATOM     12  C   UNL     1      18.248  -1.641  14.688  1.00  0.00     0.159 C 
ATOM     13  C   UNL     1      19.665   2.374  10.631  1.00  0.00     0.199 A 
ATOM     14  H   UNL     1      20.878   0.621  10.602  1.00  0.00     0.168 HD
ENDROOT
TORSDOF 0
ENDMDL
MODEL 2
REMARK VINA RESULT:      -5.9      1.955      3.632
REMARK SMILES Cn1c(=O)c2[nH]cnc2n(C)c1=O
REMARK SMILES IDX 4 1 13 2 10 3 2 4 6 5 8 6 9 7 5 8 3 9 12 10 11 11 1 12 7 13
REMARK H PARENT 6 14
ROOT
ATOM      1  O   UNL     1      19.995  -1.713  14.154  1.00  0.00    -0.267 OA
ATOM      2  O   UNL     1      18.339   1.834  11.562  1.00  0.00    -0.247 OA
ATOM      3  N   UNL     1      17.591   1.632  13.756  1.00  0.00    -0.279 N 
ATOM      4  N   UNL     1      19.181   0.055  12.833  1.00  0.00    -0.261 N 
ATOM      5  N   UNL     1      18.270  -0.636  16.338  1.00  0.00    -0.339 N 
ATOM      6  N   UNL     1      16.984   1.169  16.095  1.00  0.00    -0.219 NA
ATOM      7  C   UNL     1      17.663   0.905  14.937  1.00  0.00     0.167 A 
ATOM      8  C   UNL     1      18.460  -0.200  15.059  1.00  0.00     0.149 A 
ATOM      9  C   UNL     1      19.288  -0.720  14.018  1.00  0.00     0.281 A 
ATOM     10  C   UNL     1      18.362   1.226  12.639  1.00  0.00     0.332 A 
ATOM     11  C   UNL     1      16.725   2.803  13.675  1.00  0.00     0.157 C 
ATOM     12  C   UNL     1      19.975  -0.359  11.681  1.00  0.00     0.159 C 
ATOM     13  C   UNL     1      17.373   0.220  16.923  1.00  0.00     0.199 A 
ATOM     14  H   UNL     1      18.705  -1.438  16.775  1.00  0.00     0.168 HD
ENDROOT
TORSDOF 0
ENDMDL
MODEL 3
REMARK VINA RESULT:      -5.8      2.921      3.705
REMARK SMILES Cn1c(=O)c2[nH]cnc2n(C)c1=O
REMARK SMILES IDX 4 1 13 2 10 3 2 4 6 5 8 6 9 7 5 8 3 9 12 10 11 11 1 12 7 13
REMARK H PARENT 6 14
ROOT
ATOM      1  O   UNL     1      16.278  -1.935  15.392  1.00  0.00    -0.267 OA
ATOM      2  O   UNL     1      19.056   1.057  17.711  1.00  0.00    -0.247 OA
ATOM      3  N   UNL     1      19.612   0.514  15.518  1.00  0.00    -0.279 N 
ATOM      4  N   UNL     1      17.653  -0.438  16.578  1.00  0.00    -0.261 N 
ATOM      5  N   UNL     1      18.159  -1.567  13.104  1.00  0.00    -0.339 N 
ATOM      6  N   UNL     1      19.947  -0.240  13.199  1.00  0.00    -0.219 NA
ATOM      7  C   UNL     1      19.270  -0.217  14.388  1.00  0.00     0.167 A 
ATOM      8  C   UNL     1      18.166  -1.025  14.356  1.00  0.00     0.149 A 
ATOM      9  C   UNL     1      17.263  -1.205  15.448  1.00  0.00     0.281 A 
ATOM     10  C   UNL     1      18.801   0.429  16.676  1.00  0.00     0.332 A 
ATOM     11  C   UNL     1      20.799   1.361  15.502  1.00  0.00     0.157 C 
ATOM     12  C   UNL     1      16.820  -0.523  17.772  1.00  0.00     0.159 C 
ATOM     13  C   UNL     1      19.250  -1.064  12.444  1.00  0.00     0.199 A 
ATOM     14  H   UNL     1      17.479  -2.216  12.729  1.00  0.00     0.168 HD
ENDROOT
TORSDOF 0
ENDMDL
