MODEL 1
REMARK VINA RESULT:      -3.7      0.000      0.000
REMARK SMILES Cn1c(=O)c2[nH]cnc2n(C)c1=O
REMARK SMILES IDX 4 1 13 2 10 3 2 4 6 5 8 6 9 7 5 8 3 9 12 10 11 11 1 12 7 13
REMARK H PARENT 6 14
ROOT
ATOM      1  O   UNL     1     -24.565   1.257 -54.721  1.00  0.00    -0.267 OA
ATOM      2  O   UNL     1     -26.476   5.451 -53.822  1.00  0.00    -0.247 OA
ATOM      3  N   UNL     1     -24.193   5.354 -54.262  1.00  0.00    -0.279 N 
ATOM      4  N   UNL     1     -25.548   3.347 -54.268  1.00  0.00    -0.261 N 
ATOM      5  N   UNL     1     -21.989   2.737 -55.012  1.00  0.00    -0.339 N 
ATOM      6  N   UNL     1     -21.818   4.945 -54.759  1.00  0.00    -0.219 NA
ATOM      7  C   UNL     1     -23.111   4.540 -54.569  1.00  0.00     0.167 A 
ATOM      8  C   UNL     1     -23.244   3.186 -54.718  1.00  0.00     0.149 A 
ATOM      9  C   UNL     1     -24.473   2.473 -54.581  1.00  0.00     0.281 A 
ATOM     10  C   UNL     1     -25.476   4.776 -54.096  1.00  0.00     0.332 A 
ATOM     11  C   UNL     1     -24.000   6.792 -54.112  1.00  0.00     0.157 C 
ATOM     12  C   UNL     1     -26.871   2.755 -54.098  1.00  0.00     0.159 C 
ATOM     13  C   UNL     1     -21.165   3.832 -55.025  1.00  0.00     0.199 A 
ATOM     14  H   UNL     1     -21.715   1.779 -55.187  1.00  0.00     0.168 HD
ENDROOT
TORSDOF 0
ENDMDL
MODEL 2
REMARK VINA RESULT:      -3.6     16.527     17.867
REMARK SMILES Cn1c(=O)c2[nH]cnc2n(C)c1=O
REMARK SMILES IDX 4 1 13 2 10 3 2 4 6 5 8 6 9 7 5 8 3 9 12 10 11 11 1 12 7 13
REMARK H PARENT 6 14
ROOT
ATOM      1  O   UNL     1     -11.972   3.151 -41.184  1.00  0.00    -0.267 OA
ATOM      2  O   UNL     1     -12.359   1.280 -45.473  1.00  0.00    -0.247 OA
ATOM      3  N   UNL     1     -11.195   0.083 -43.851  1.00  0.00    -0.279 N 
ATOM      4  N   UNL     1     -12.181   2.236 -43.342  1.00  0.00    -0.261 N 
ATOM      5  N   UNL     1     -10.432   0.691 -40.487  1.00  0.00    -0.339 N 
ATOM      6  N   UNL     1     -10.028  -0.946 -41.945  1.00  0.00    -0.219 NA
ATOM      7  C   UNL     1     -10.753   0.053 -42.536  1.00  0.00     0.167 A 
ATOM      8  C   UNL     1     -11.014   1.073 -41.661  1.00  0.00     0.149 A 
ATOM      9  C   UNL     1     -11.750   2.251 -41.988  1.00  0.00     0.281 A 
ATOM     10  C   UNL     1     -11.939   1.197 -44.312  1.00  0.00     0.332 A 
ATOM     11  C   UNL     1     -10.891  -1.028 -44.746  1.00  0.00     0.157 C 
ATOM     12  C   UNL     1     -12.949   3.382 -43.819  1.00  0.00     0.159 C 
ATOM     13  C   UNL     1      -9.851  -0.531 -40.708  1.00  0.00     0.199 A 
ATOM     14  H   UNL     1     -10.427   1.208 -39.618  1.00  0.00     0.168 HD
ENDROOT
TORSDOF 0
ENDMDL
MODEL 3
REMARK VINA RESULT:      -3.6     13.141     14.488
REMARK SMILES Cn1c(=O)c2[nH]cnc2n(C)c1=O
REMARK SMILES IDX 4 1 13 2 10 3 2 4 6 5 8 6 9 7 5 8 3 9 12 10 11 11 1 12 7 13
REMARK H PARENT 6 14
ROOT
ATOM      1  O   UNL     1     -32.130   7.053 -40.450  1.00  0.00    -0.267 OA
ATOM      2  O   UNL     1     -32.284  10.465 -43.671  1.00  0.00    -0.247 OA
ATOM      3  N   UNL     1     -31.756   8.311 -44.375  1.00  0.00    -0.279 N 
ATOM      4  N   UNL     1     -32.214   8.782 -42.044  1.00  0.00    -0.261 N 
ATOM      5  N   UNL     1     -31.423   5.243 -42.716  1.00  0.00    -0.339 N 
ATOM      6  N   UNL     1     -31.229   5.949 -44.822  1.00  0.00    -0.219 NA
ATOM      7  C   UNL     1     -31.560   6.989 -43.997  1.00  0.00     0.167 A 
ATOM      8  C   UNL     1     -31.685   6.583 -42.696  1.00  0.00     0.149 A 
ATOM      9  C   UNL     1     -32.022   7.443 -41.608  1.00  0.00     0.281 A 
ATOM     10  C   UNL     1     -32.097   9.274 -43.394  1.00  0.00     0.332 A 
ATOM     11  C   UNL     1     -31.611   8.695 -45.774  1.00  0.00     0.157 C 
ATOM     12  C   UNL     1     -32.565   9.776 -41.036  1.00  0.00     0.159 C 
ATOM     13  C   UNL     1     -31.155   4.908 -44.018  1.00  0.00     0.199 A 
ATOM     14  H   UNL     1     -31.426   4.615 -41.924  1.00  0.00     0.168 HD
ENDROOT
TORSDOF 0
ENDMDL
