MODEL 1
REMARK VINA RESULT:      -4.5      0.000      0.000
REMARK SMILES CN(C)CCOc1ccc(/C(=C(/CCCl)c2ccccc2)c2ccccc2)cc1
REMARK SMILES IDX 10 1 9 2 28 3 7 4 8 5 29 6 11 7 12 8 13 9 14 10 15 11 16 12
REMARK SMILES IDX 17 13 21 14 18 15 20 16 19 17 22 18 23 19 27 20 24 21 26 22
REMARK SMILES IDX 25 23 6 24 5 25 4 26 2 27 1 28 3 29
REMARK H PARENT
ROOT
ATOM      1  C   UNL     1     -25.844   8.715 -51.254  1.00  0.00    -0.017 A 
ATOM      2  C   UNL     1     -25.588   8.166 -49.997  1.00  0.00     0.012 A 
ATOM      3  C   UNL     1     -25.050   9.756 -51.735  1.00  0.00     0.012 A 
ATOM      4  C   UNL     1     -23.751   9.695 -49.708  1.00  0.00     0.119 A 
ATOM      5  C   UNL     1     -24.538   8.658 -49.222  1.00  0.00     0.047 A 
ATOM      6  C   UNL     1     -24.000  10.248 -50.960  1.00  0.00     0.047 A 
ENDROOT
BRANCH   1   7
ATOM      7  C   UNL     1     -26.939   8.201 -52.061  1.00  0.00    -0.007 C 
ATOM      8  C   UNL     1     -28.189   8.782 -52.046  1.00  0.00    -0.031 C 
BRANCH   8   9
ATOM      9  C   UNL     1     -29.420   8.295 -52.798  1.00  0.00     0.053 C 
BRANCH   9  10
ATOM     10  C   UNL     1     -29.575   8.979 -54.154  1.00  0.00     0.114 C 
ATOM     11  Cl  UNL     1     -31.163   9.776 -54.264  1.00  0.00    -0.126 Cl
ENDBRANCH   9  10
ENDBRANCH   8   9
BRANCH   8  12
ATOM     12  C   UNL     1     -28.453   9.971 -51.198  1.00  0.00    -0.022 A 
ATOM     13  C   UNL     1     -28.799   9.781 -49.875  1.00  0.00     0.008 A 
ATOM     14  C   UNL     1     -28.346  11.228 -51.756  1.00  0.00     0.008 A 
ATOM     15  C   UNL     1     -29.050  10.898 -49.077  1.00  0.00     0.001 A 
ATOM     16  C   UNL     1     -28.596  12.344 -50.958  1.00  0.00     0.001 A 
ATOM     17  C   UNL     1     -28.948  12.180 -49.618  1.00  0.00     0.000 A 
ENDBRANCH   8  12
BRANCH   7  18
ATOM     18  C   UNL     1     -26.742   7.007 -52.945  1.00  0.00    -0.018 A 
ATOM     19  C   UNL     1     -27.109   5.773 -52.466  1.00  0.00     0.009 A 
ATOM     20  C   UNL     1     -26.203   7.200 -54.193  1.00  0.00     0.009 A 
ATOM     21  C   UNL     1     -26.925   4.662 -53.289  1.00  0.00     0.001 A 
ATOM     22  C   UNL     1     -26.019   6.088 -55.016  1.00  0.00     0.001 A 
ATOM     23  C   UNL     1     -26.380   4.819 -54.563  1.00  0.00     0.000 A 
ENDBRANCH   7  18
ENDBRANCH   1   7
BRANCH   4  24
ATOM     24  O   UNL     1     -22.720  10.179 -48.947  1.00  0.00    -0.492 OA
BRANCH  24  25
ATOM     25  C   UNL     1     -21.449  10.275 -49.577  1.00  0.00     0.245 C 
BRANCH  25  26
ATOM     26  C   UNL     1     -20.380  10.397 -48.503  1.00  0.00     0.125 C 
BRANCH  26  27
ATOM     27  N   UNL     1     -19.317   9.415 -48.718  1.00  0.00    -0.306 NA
ATOM     28  C   UNL     1     -18.722   9.588 -50.043  1.00  0.00     0.105 C 
ATOM     29  C   UNL     1     -18.294   9.532 -47.679  1.00  0.00     0.105 C 
ENDBRANCH  26  27
ENDBRANCH  25  26
ENDBRANCH  24  25
ENDBRANCH   4  24
TORSDOF 9
ENDMDL
MODEL 2
REMARK VINA RESULT:      -4.5      3.057      4.327
REMARK SMILES CN(C)CCOc1ccc(/C(=C(/CCCl)c2ccccc2)c2ccccc2)cc1
REMARK SMILES IDX 10 1 9 2 28 3 7 4 8 5 29 6 11 7 12 8 13 9 14 10 15 11 16 12
REMARK SMILES IDX 17 13 21 14 18 15 20 16 19 17 22 18 23 19 27 20 24 21 26 22
REMARK SMILES IDX 25 23 6 24 5 25 4 26 2 27 1 28 3 29
REMARK H PARENT
ROOT
ATOM      1  C   UNL     1     -25.926   7.275 -52.499  1.00  0.00    -0.017 A 
ATOM      2  C   UNL     1     -24.754   8.018 -52.643  1.00  0.00     0.012 A 
ATOM      3  C   UNL     1     -26.592   7.252 -51.274  1.00  0.00     0.012 A 
ATOM      4  C   UNL     1     -24.916   8.711 -50.343  1.00  0.00     0.119 A 
ATOM      5  C   UNL     1     -24.247   8.738 -51.561  1.00  0.00     0.047 A 
ATOM      6  C   UNL     1     -26.085   7.972 -50.192  1.00  0.00     0.047 A 
ENDROOT
BRANCH   1   7
ATOM      7  C   UNL     1     -26.452   6.524 -53.628  1.00  0.00    -0.007 C 
ATOM      8  C   UNL     1     -27.371   7.069 -54.499  1.00  0.00    -0.031 C 
BRANCH   8   9
ATOM      9  C   UNL     1     -28.035   6.358 -55.672  1.00  0.00     0.053 C 
BRANCH   9  10
ATOM     10  C   UNL     1     -27.208   6.462 -56.950  1.00  0.00     0.114 C 
ATOM     11  Cl  UNL     1     -26.718   4.842 -57.501  1.00  0.00    -0.126 Cl
ENDBRANCH   9  10
ENDBRANCH   8   9
BRANCH   8  12
ATOM     12  C   UNL     1     -27.851   8.460 -54.310  1.00  0.00    -0.022 A 
ATOM     13  C   UNL     1     -29.003   8.675 -53.581  1.00  0.00     0.008 A 
ATOM     14  C   UNL     1     -27.133   9.497 -54.869  1.00  0.00     0.008 A 
ATOM     15  C   UNL     1     -29.456   9.982 -53.404  1.00  0.00     0.001 A 
ATOM     16  C   UNL     1     -27.585  10.804 -54.692  1.00  0.00     0.001 A 
ATOM     17  C   UNL     1     -28.746  11.047 -53.959  1.00  0.00     0.000 A 
ENDBRANCH   8  12
BRANCH   7  18
ATOM     18  C   UNL     1     -26.009   5.116 -53.882  1.00  0.00    -0.018 A 
ATOM     19  C   UNL     1     -24.800   4.914 -54.502  1.00  0.00     0.009 A 
ATOM     20  C   UNL     1     -26.831   4.090 -53.486  1.00  0.00     0.009 A 
ATOM     21  C   UNL     1     -24.388   3.602 -54.739  1.00  0.00     0.001 A 
ATOM     22  C   UNL     1     -26.418   2.778 -53.723  1.00  0.00     0.001 A 
ATOM     23  C   UNL     1     -25.196   2.535 -54.349  1.00  0.00     0.000 A 
ENDBRANCH   7  18
ENDBRANCH   1   7
BRANCH   4  24
ATOM     24  O   UNL     1     -24.420   9.418 -49.280  1.00  0.00    -0.492 OA
BRANCH  24  25
ATOM     25  C   UNL     1     -24.293  10.824 -49.448  1.00  0.00     0.245 C 
BRANCH  25  26
ATOM     26  C   UNL     1     -25.648  11.469 -49.204  1.00  0.00     0.125 C 
BRANCH  26  27
ATOM     27  N   UNL     1     -26.081  11.253 -47.823  1.00  0.00    -0.306 NA
ATOM     28  C   UNL     1     -26.127  12.522 -47.098  1.00  0.00     0.105 C 
ATOM     29  C   UNL     1     -27.389  10.599 -47.795  1.00  0.00     0.105 C 
ENDBRANCH  26  27
ENDBRANCH  25  26
ENDBRANCH  24  25
ENDBRANCH   4  24
TORSDOF 9
ENDMDL
MODEL 3
REMARK VINA RESULT:      -4.3      2.401      3.398
REMARK SMILES CN(C)CCOc1ccc(/C(=C(/CCCl)c2ccccc2)c2ccccc2)cc1
REMARK SMILES IDX 10 1 9 2 28 3 7 4 8 5 29 6 11 7 12 8 13 9 14 10 15 11 16 12
REMARK SMILES IDX 17 13 21 14 18 15 20 16 19 17 22 18 23 19 27 20 24 21 26 22
REMARK SMILES IDX 25 23 6 24 5 25 4 26 2 27 1 28 3 29
REMARK H PARENT
ROOT
ATOM      1  C   UNL     1     -25.949   7.302 -52.574  1.00  0.00    -0.017 A 
ATOM      2  C   UNL     1     -24.759   8.012 -52.741  1.00  0.00     0.012 A 
ATOM      3  C   UNL     1     -26.602   7.315 -51.342  1.00  0.00     0.012 A 
ATOM      4  C   UNL     1     -24.880   8.746 -50.451  1.00  0.00     0.119 A 
ATOM      5  C   UNL     1     -24.224   8.736 -51.676  1.00  0.00     0.047 A 
ATOM      6  C   UNL     1     -26.067   8.039 -50.277  1.00  0.00     0.047 A 
ENDROOT
BRANCH   1   7
ATOM      7  C   UNL     1     -26.506   6.547 -53.685  1.00  0.00    -0.007 C 
ATOM      8  C   UNL     1     -27.444   7.091 -54.536  1.00  0.00    -0.031 C 
BRANCH   8   9
ATOM      9  C   UNL     1     -28.139   6.377 -55.688  1.00  0.00     0.053 C 
BRANCH   9  10
ATOM     10  C   UNL     1     -27.455   6.642 -57.026  1.00  0.00     0.114 C 
ATOM     11  Cl  UNL     1     -26.626   5.174 -57.596  1.00  0.00    -0.126 Cl
ENDBRANCH   9  10
ENDBRANCH   8   9
BRANCH   8  12
ATOM     12  C   UNL     1     -27.913   8.485 -54.343  1.00  0.00    -0.022 A 
ATOM     13  C   UNL     1     -27.176   9.518 -54.888  1.00  0.00     0.008 A 
ATOM     14  C   UNL     1     -29.070   8.708 -53.626  1.00  0.00     0.008 A 
ATOM     15  C   UNL     1     -27.616  10.829 -54.705  1.00  0.00     0.001 A 
ATOM     16  C   UNL     1     -29.510  10.019 -53.445  1.00  0.00     0.001 A 
ATOM     17  C   UNL     1     -28.783  11.080 -53.985  1.00  0.00     0.000 A 
ENDBRANCH   8  12
BRANCH   7  18
ATOM     18  C   UNL     1     -26.075   5.135 -53.942  1.00  0.00    -0.018 A 
ATOM     19  C   UNL     1     -26.907   4.116 -53.547  1.00  0.00     0.009 A 
ATOM     20  C   UNL     1     -24.867   4.923 -54.559  1.00  0.00     0.009 A 
ATOM     21  C   UNL     1     -26.504   2.802 -53.786  1.00  0.00     0.001 A 
ATOM     22  C   UNL     1     -24.465   3.608 -54.798  1.00  0.00     0.001 A 
ATOM     23  C   UNL     1     -25.284   2.548 -54.411  1.00  0.00     0.000 A 
ENDBRANCH   7  18
ENDBRANCH   1   7
BRANCH   4  24
ATOM     24  O   UNL     1     -24.355   9.456 -49.404  1.00  0.00    -0.492 OA
BRANCH  24  25
ATOM     25  C   UNL     1     -23.491  10.536 -49.733  1.00  0.00     0.245 C 
BRANCH  25  26
ATOM     26  C   UNL     1     -22.185  10.366 -48.973  1.00  0.00     0.125 C 
BRANCH  26  27
ATOM     27  N   UNL     1     -21.058  10.847 -49.772  1.00  0.00    -0.306 NA
ATOM     28  C   UNL     1     -20.015   9.825 -49.852  1.00  0.00     0.105 C 
ATOM     29  C   UNL     1     -21.506  11.228 -51.112  1.00  0.00     0.105 C 
ENDBRANCH  26  27
ENDBRANCH  25  26
ENDBRANCH  24  25
ENDBRANCH   4  24
TORSDOF 9
ENDMDL
